<?xml version="1.0" encoding="UTF-8"?>

<!-- generated on 03/04/21 12:20:29 by Eclipse SUMO netedit Version 1.8.0
<configuration xmlns:xsi="http://www.w3.org/2001/XMLSchema-instance" xsi:noNamespaceSchemaLocation="http://sumo.dlr.de/xsd/netconvertConfiguration.xsd">

    <input>
        <sumo-net-file value="C:\Users\bamdadmehrab\Desktop\Behzad\ucl\after.accept\Studies\Ph.D\SUMO\Sioux.Falls\1.Demand_&amp;_Network\Falls.net.xml"/>
    </input>

    <output>
        <output-file value="C:\Users\bamdadmehrab\Desktop\Behzad\ucl\after.accept\Studies\Ph.D\SUMO\Sioux.Falls\1.Demand_&amp;_Network\Falls.net.xml"/>
    </output>

    <processing>
        <geometry.min-radius.fix.railways value="false"/>
        <geometry.max-grade.fix value="false"/>
        <offset.disable-normalization value="true"/>
        <lefthand value="false"/>
    </processing>

    <junctions>
        <no-turnarounds value="true"/>
        <junctions.corner-detail value="5"/>
        <junctions.limit-turn-speed value="5.5"/>
        <rectangular-lane-cut value="false"/>
    </junctions>

    <pedestrian>
        <walkingareas value="false"/>
    </pedestrian>

    <netedit>
        <additional-files value="C:\Users\bamdadmehrab\Desktop\Behzad\ucl\after.accept\Studies\Ph.D\SUMO\Sioux.Falls\1.Demand_&amp;_Network\Falls.new.add.xml"/>
    </netedit>

    <report>
        <aggregate-warnings value="5"/>
    </report>

</configuration>
-->

<net version="1.6" junctionCornerDetail="5" limitTurnSpeed="5.50" xmlns:xsi="http://www.w3.org/2001/XMLSchema-instance" xsi:noNamespaceSchemaLocation="http://sumo.dlr.de/xsd/net_file.xsd">

    <location netOffset="-675072.96,-4814515.45" convBoundary="0.00,2707.93,16733.32,20504.20" origBoundary="-96.830825,43.460575,-96.623779,43.645267" projParameter="+proj=utm +zone=14 +ellps=WGS84 +datum=WGS84 +units=m +no_defs"/>

    <type id="highway.bridleway" priority="1" numLanes="1" speed="2.78" allow="pedestrian" oneway="1" width="2.00"/>
    <type id="highway.bus_guideway" priority="1" numLanes="1" speed="27.78" allow="bus" oneway="1"/>
    <type id="highway.cycleway" priority="1" numLanes="1" speed="8.33" allow="bicycle" oneway="1" width="1.00"/>
    <type id="highway.footway" priority="1" numLanes="1" speed="2.78" allow="pedestrian" oneway="1" width="2.00"/>
    <type id="highway.ford" priority="1" numLanes="1" speed="2.78" allow="army" oneway="1"/>
    <type id="highway.living_street" priority="2" numLanes="1" speed="2.78" disallow="tram rail_urban rail rail_electric rail_fast ship" oneway="1"/>
    <type id="highway.motorway" priority="14" numLanes="2" speed="39.44" allow="private emergency authority army vip passenger hov taxi bus coach delivery truck trailer motorcycle evehicle custom1 custom2" oneway="1"/>
    <type id="highway.motorway_link" priority="9" numLanes="1" speed="22.22" allow="private emergency authority army vip passenger hov taxi bus coach delivery truck trailer motorcycle evehicle custom1 custom2" oneway="1"/>
    <type id="highway.path" priority="1" numLanes="1" speed="2.78" allow="pedestrian bicycle" oneway="1" width="2.00"/>
    <type id="highway.pedestrian" priority="1" numLanes="1" speed="2.78" allow="pedestrian" oneway="1" width="2.00"/>
    <type id="highway.primary" priority="12" numLanes="2" speed="27.78" disallow="tram rail_urban rail rail_electric rail_fast ship" oneway="1"/>
    <type id="highway.primary_link" priority="7" numLanes="1" speed="22.22" disallow="tram rail_urban rail rail_electric rail_fast ship" oneway="1"/>
    <type id="highway.raceway" priority="15" numLanes="2" speed="83.33" allow="vip" oneway="1"/>
    <type id="highway.residential" priority="3" numLanes="1" speed="13.89" disallow="tram rail_urban rail rail_electric rail_fast ship" oneway="1"/>
    <type id="highway.secondary" priority="11" numLanes="1" speed="27.78" disallow="tram rail_urban rail rail_electric rail_fast ship" oneway="1"/>
    <type id="highway.secondary_link" priority="6" numLanes="1" speed="22.22" disallow="tram rail_urban rail rail_electric rail_fast ship" oneway="1"/>
    <type id="highway.service" priority="1" numLanes="1" speed="5.56" allow="pedestrian delivery bicycle" oneway="1"/>
    <type id="highway.stairs" priority="1" numLanes="1" speed="1.39" allow="pedestrian" oneway="1" width="2.00"/>
    <type id="highway.step" priority="1" numLanes="1" speed="1.39" allow="pedestrian" oneway="1" width="2.00"/>
    <type id="highway.steps" priority="1" numLanes="1" speed="1.39" allow="pedestrian" oneway="1" width="2.00"/>
    <type id="highway.tertiary" priority="10" numLanes="1" speed="22.22" disallow="tram rail_urban rail rail_electric rail_fast ship" oneway="1"/>
    <type id="highway.tertiary_link" priority="5" numLanes="1" speed="22.22" disallow="tram rail_urban rail rail_electric rail_fast ship" oneway="1"/>
    <type id="highway.track" priority="1" numLanes="1" speed="5.56" allow="pedestrian motorcycle moped bicycle" oneway="1"/>
    <type id="highway.trunk" priority="13" numLanes="2" speed="27.78" disallow="pedestrian bicycle tram rail_urban rail rail_electric rail_fast ship" oneway="1"/>
    <type id="highway.trunk_link" priority="8" numLanes="1" speed="22.22" disallow="pedestrian bicycle tram rail_urban rail rail_electric rail_fast ship" oneway="1"/>
    <type id="highway.unclassified" priority="4" numLanes="1" speed="13.89" disallow="tram rail_urban rail rail_electric rail_fast ship" oneway="1"/>
    <type id="highway.unsurfaced" priority="1" numLanes="1" speed="8.33" disallow="tram rail_urban rail rail_electric rail_fast ship" oneway="1"/>
    <type id="railway.highspeed" priority="21" numLanes="1" speed="69.44" allow="rail_fast" oneway="1"/>
    <type id="railway.light_rail" priority="19" numLanes="1" speed="27.78" allow="rail_urban" oneway="1"/>
    <type id="railway.preserved" priority="16" numLanes="1" speed="27.78" allow="rail" oneway="1"/>
    <type id="railway.rail" priority="20" numLanes="1" speed="44.44" allow="rail" oneway="1"/>
    <type id="railway.subway" priority="18" numLanes="1" speed="27.78" allow="rail_urban" oneway="1"/>
    <type id="railway.tram" priority="17" numLanes="1" speed="13.89" allow="tram" oneway="1"/>

    <edge id=":1010785845_0" function="internal">
        <lane id=":1010785845_0_0" index="0" disallow="pedestrian bicycle tram rail_urban rail rail_electric rail_fast ship" speed="20.12" length="8.03" shape="5330.53,11588.31 5332.16,11586.54 5333.02,11585.09 5333.91,11583.67 5335.64,11582.01"/>
        <lane id=":1010785845_0_1" index="1" disallow="pedestrian bicycle tram rail_urban rail rail_electric rail_fast ship" speed="20.12" length="8.03" shape="5330.53,11588.31 5332.45,11586.95 5334.00,11586.35 5335.58,11585.79 5337.59,11584.54"/>
        <lane id=":1010785845_0_2" index="2" disallow="pedestrian bicycle tram rail_urban rail rail_electric rail_fast ship" speed="20.12" length="8.03" shape="5332.64,11590.71 5334.52,11589.39 5336.04,11588.82 5337.58,11588.29 5339.55,11587.07"/>
    </edge>
    <edge id=":1010785848_0" function="internal">
        <lane id=":1010785848_0_0" index="0" disallow="pedestrian bicycle tram rail_urban rail rail_electric rail_fast ship" speed="20.12" length="8.17" shape="5398.84,11535.97 5400.55,11534.27 5401.46,11532.84 5402.37,11531.42 5404.11,11529.75"/>
        <lane id=":1010785848_0_1" index="1" disallow="pedestrian bicycle tram rail_urban rail rail_electric rail_fast ship" speed="20.12" length="8.17" shape="5400.86,11538.46 5402.55,11536.77 5403.44,11535.34 5404.35,11533.93 5406.07,11532.28"/>
    </edge>
    <edge id=":1010794959_0" function="internal">
        <lane id=":1010794959_0_0" index="0" allow="private emergency authority army vip passenger hov taxi bus coach delivery truck trailer motorcycle evehicle custom1 custom2" speed="29.06" length="7.99" shape="4293.91,7675.63 4293.74,7683.64"/>
        <lane id=":1010794959_0_1" index="1" allow="private emergency authority army vip passenger hov taxi bus coach delivery truck trailer motorcycle evehicle custom1 custom2" speed="29.06" length="7.99" shape="4290.72,7675.57 4290.54,7683.56"/>
        <lane id=":1010794959_0_2" index="2" allow="private emergency authority army vip passenger hov taxi bus coach delivery truck trailer motorcycle evehicle custom1 custom2" speed="29.06" length="7.99" shape="4287.52,7675.51 4287.34,7683.48"/>
    </edge>
    <edge id=":1028816415_0" function="internal">
        <lane id=":1028816415_0_0" index="0" disallow="pedestrian bicycle tram rail_urban rail rail_electric rail_fast ship" speed="20.12" length="8.20" shape="4531.70,12293.22 4534.00,12292.22 4535.27,12290.82 4536.54,12289.42 4538.84,12288.41"/>
        <lane id=":1028816415_0_1" index="1" disallow="pedestrian bicycle tram rail_urban rail rail_electric rail_fast ship" speed="20.12" length="8.20" shape="4531.70,12293.22 4539.52,12291.54"/>
        <lane id=":1028816415_0_2" index="2" disallow="pedestrian bicycle tram rail_urban rail rail_electric rail_fast ship" speed="20.12" length="8.20" shape="4532.38,12296.35 4540.20,12294.66"/>
        <lane id=":1028816415_0_3" index="3" disallow="pedestrian bicycle tram rail_urban rail rail_electric rail_fast ship" speed="20.12" length="8.20" shape="4533.05,12299.48 4540.88,12297.79"/>
    </edge>
    <edge id=":1028817828_0" function="internal">
        <lane id=":1028817828_0_0" index="0" allow="private emergency authority army vip passenger hov taxi bus coach delivery truck trailer motorcycle evehicle custom1 custom2" speed="21.17" length="2.95" shape="4627.47,12269.15 4630.35,12268.51"/>
    </edge>
    <edge id=":1028817828_1" function="internal">
        <lane id=":1028817828_1_0" index="0" disallow="pedestrian bicycle tram rail_urban rail rail_electric rail_fast ship" speed="20.12" length="3.02" shape="4628.15,12272.28 4631.07,12271.67"/>
        <lane id=":1028817828_1_1" index="1" disallow="pedestrian bicycle tram rail_urban rail rail_electric rail_fast ship" speed="20.12" length="3.02" shape="4628.83,12275.41 4631.78,12274.79"/>
        <lane id=":1028817828_1_2" index="2" disallow="pedestrian bicycle tram rail_urban rail rail_electric rail_fast ship" speed="20.12" length="3.02" shape="4629.51,12278.53 4632.49,12277.91"/>
    </edge>
    <edge id=":1103648644_0" function="internal">
        <lane id=":1103648644_0_0" index="0" disallow="tram rail_urban rail rail_electric rail_fast ship" speed="13.41" length="8.21" shape="9349.54,9523.98 9351.94,9524.14 9353.62,9523.87 9355.29,9523.60 9357.69,9523.77"/>
        <lane id=":1103648644_0_1" index="1" disallow="tram rail_urban rail rail_electric rail_fast ship" speed="13.41" length="8.21" shape="9348.99,9527.13 9351.40,9527.29 9353.07,9527.03 9354.74,9526.76 9357.15,9526.92"/>
    </edge>
    <edge id=":111171761-AddedOnRampNode_0" function="internal">
        <lane id=":111171761-AddedOnRampNode_0_0" index="0" allow="private emergency authority army vip passenger hov taxi bus coach delivery truck trailer motorcycle evehicle custom1 custom2" speed="29.06" length="7.99" shape="5484.61,16768.61 5492.61,16768.85"/>
        <lane id=":111171761-AddedOnRampNode_0_1" index="1" allow="private emergency authority army vip passenger hov taxi bus coach delivery truck trailer motorcycle evehicle custom1 custom2" speed="29.06" length="7.99" shape="5484.52,16771.81 5492.50,16772.05"/>
    </edge>
    <edge id=":118985879#0-AddedOffRampNode_0" function="internal">
        <lane id=":118985879#0-AddedOffRampNode_0_0" index="0" allow="private emergency authority army vip passenger hov taxi bus coach delivery truck trailer motorcycle evehicle custom1 custom2" speed="29.06" length="8.20" shape="4804.55,15705.30 4804.05,15702.84 4802.95,15701.30 4801.85,15699.76 4801.35,15697.30"/>
        <lane id=":118985879#0-AddedOffRampNode_0_1" index="1" allow="private emergency authority army vip passenger hov taxi bus coach delivery truck trailer motorcycle evehicle custom1 custom2" speed="29.06" length="8.20" shape="4804.55,15705.30 4804.55,15697.30"/>
        <lane id=":118985879#0-AddedOffRampNode_0_2" index="2" allow="private emergency authority army vip passenger hov taxi bus coach delivery truck trailer motorcycle evehicle custom1 custom2" speed="29.06" length="8.20" shape="4807.75,15705.30 4807.75,15697.30"/>
        <lane id=":118985879#0-AddedOffRampNode_0_3" index="3" allow="private emergency authority army vip passenger hov taxi bus coach delivery truck trailer motorcycle evehicle custom1 custom2" speed="29.06" length="8.20" shape="4810.95,15705.30 4810.95,15697.30"/>
    </edge>
    <edge id=":119407985#5-AddedOnRampNode_0" function="internal">
        <lane id=":119407985#5-AddedOnRampNode_0_0" index="0" disallow="tram rail_urban rail rail_electric rail_fast ship" speed="27.78" length="8.00" shape="8329.55,12709.82 8328.29,12701.92"/>
        <lane id=":119407985#5-AddedOnRampNode_0_1" index="1" disallow="tram rail_urban rail rail_electric rail_fast ship" speed="27.78" length="8.00" shape="8332.71,12709.32 8331.44,12701.41"/>
    </edge>
    <edge id=":120479027#4-AddedOffRampNode_0" function="internal">
        <lane id=":120479027#4-AddedOffRampNode_0_0" index="0" disallow="pedestrian bicycle tram rail_urban rail rail_electric rail_fast ship" speed="27.78" length="8.27" shape="6891.40,11168.29 6891.82,11170.77 6892.86,11172.34 6893.91,11173.92 6894.32,11176.39"/>
        <lane id=":120479027#4-AddedOffRampNode_0_1" index="1" disallow="pedestrian bicycle tram rail_urban rail rail_electric rail_fast ship" speed="27.78" length="8.27" shape="6891.40,11168.29 6891.12,11176.28"/>
        <lane id=":120479027#4-AddedOffRampNode_0_2" index="2" disallow="pedestrian bicycle tram rail_urban rail rail_electric rail_fast ship" speed="27.78" length="8.27" shape="6888.21,11168.18 6887.93,11176.18"/>
    </edge>
    <edge id=":1331643579_0" function="internal">
        <lane id=":1331643579_0_0" index="0" disallow="pedestrian bicycle tram rail_urban rail rail_electric rail_fast ship" speed="20.12" length="7.57" shape="4795.20,12255.40 4793.17,12256.53 4791.92,12257.61 4790.65,12258.61 4788.54,12259.52"/>
        <lane id=":1331643579_0_1" index="1" disallow="pedestrian bicycle tram rail_urban rail rail_electric rail_fast ship" speed="20.12" length="7.57" shape="4793.95,12252.45 4792.01,12253.55 4790.83,12254.60 4789.63,12255.58 4787.61,12256.46"/>
        <lane id=":1331643579_0_2" index="2" disallow="pedestrian bicycle tram rail_urban rail rail_electric rail_fast ship" speed="20.12" length="7.57" shape="4792.70,12249.51 4790.85,12250.56 4789.74,12251.59 4788.60,12252.55 4786.67,12253.40"/>
    </edge>
    <edge id=":1331643595_0" function="internal">
        <lane id=":1331643595_0_0" index="0" allow="private emergency authority army vip passenger hov taxi bus coach delivery truck trailer motorcycle evehicle custom1 custom2" speed="6.91" length="10.64" shape="4784.69,12228.45 4786.15,12231.41 4787.96,12233.20 4790.12,12233.84 4792.62,12233.32"/>
    </edge>
    <edge id=":1331643595_1" function="internal">
        <lane id=":1331643595_1_0" index="0" allow="private emergency authority army vip passenger hov taxi bus coach delivery truck trailer motorcycle evehicle custom1 custom2" speed="8.31" length="15.88" shape="4781.71,12229.62 4783.85,12233.83 4786.59,12236.35 4789.92,12237.16 4793.84,12236.28"/>
    </edge>
    <edge id=":1331643595_2" function="internal">
        <lane id=":1331643595_2_0" index="0" allow="private emergency authority army vip passenger hov taxi bus coach delivery truck trailer motorcycle evehicle custom1 custom2" speed="9.51" length="21.13" shape="4778.73,12230.79 4781.56,12236.26 4785.22,12239.49 4789.72,12240.49 4795.05,12239.24"/>
    </edge>
    <edge id=":1331643595_3" function="internal">
        <lane id=":1331643595_3_0" index="0" disallow="pedestrian bicycle tram rail_urban rail rail_electric rail_fast ship" speed="20.12" length="18.19" shape="4775.33,12237.81 4780.47,12236.48 4784.08,12235.85 4787.63,12235.08 4792.62,12233.32"/>
        <lane id=":1331643595_3_1" index="1" disallow="pedestrian bicycle tram rail_urban rail rail_electric rail_fast ship" speed="20.12" length="18.19" shape="4776.27,12240.87 4781.50,12239.51 4785.16,12238.87 4788.77,12238.08 4793.84,12236.28"/>
        <lane id=":1331643595_3_2" index="2" disallow="pedestrian bicycle tram rail_urban rail rail_electric rail_fast ship" speed="20.12" length="18.19" shape="4777.22,12243.93 4782.52,12242.54 4786.24,12241.88 4789.91,12241.07 4795.05,12239.24"/>
    </edge>
    <edge id=":1331643600_0" function="internal">
        <lane id=":1331643600_0_0" index="0" allow="private emergency authority army vip passenger hov taxi bus coach delivery truck trailer motorcycle evehicle custom1 custom2" speed="21.17" length="2.44" shape="5042.64,11912.14 5041.39,11914.23"/>
    </edge>
    <edge id=":1331643600_1" function="internal">
        <lane id=":1331643600_1_0" index="0" disallow="pedestrian bicycle tram rail_urban rail rail_electric rail_fast ship" speed="20.12" length="2.91" shape="5039.97,11910.39 5038.54,11912.66"/>
        <lane id=":1331643600_1_1" index="1" disallow="pedestrian bicycle tram rail_urban rail rail_electric rail_fast ship" speed="20.12" length="2.91" shape="5037.29,11908.64 5035.74,11911.11"/>
        <lane id=":1331643600_1_2" index="2" disallow="pedestrian bicycle tram rail_urban rail rail_electric rail_fast ship" speed="20.12" length="2.91" shape="5034.61,11906.89 5032.94,11909.56"/>
    </edge>
    <edge id=":1331643630_0" function="internal">
        <lane id=":1331643630_0_0" index="0" allow="private emergency authority army vip passenger hov taxi bus coach delivery truck trailer motorcycle evehicle custom1 custom2" speed="21.17" length="3.08" shape="4542.28,12316.50 4539.26,12317.13"/>
    </edge>
    <edge id=":1331643630_1" function="internal">
        <lane id=":1331643630_1_0" index="0" disallow="pedestrian bicycle tram rail_urban rail rail_electric rail_fast ship" speed="23.95" length="3.54" shape="4541.60,12313.37 4540.71,12313.82 4540.28,12314.48 4539.84,12315.13 4538.94,12315.57"/>
        <lane id=":1331643630_1_1" index="1" disallow="pedestrian bicycle tram rail_urban rail rail_electric rail_fast ship" speed="23.95" length="3.54" shape="4540.93,12310.25 4540.05,12310.69 4539.62,12311.35 4539.19,12312.00 4538.31,12312.44"/>
        <lane id=":1331643630_1_2" index="2" disallow="pedestrian bicycle tram rail_urban rail rail_electric rail_fast ship" speed="23.95" length="3.54" shape="4540.26,12307.12 4539.39,12307.56 4538.97,12308.21 4538.54,12308.86 4537.67,12309.30"/>
    </edge>
    <edge id=":1331643655_0" function="internal">
        <lane id=":1331643655_0_0" index="0" disallow="pedestrian bicycle tram rail_urban rail rail_electric rail_fast ship" speed="20.12" length="1.89" shape="5155.17,11742.19 5154.62,11740.33"/>
        <lane id=":1331643655_0_1" index="1" disallow="pedestrian bicycle tram rail_urban rail rail_electric rail_fast ship" speed="20.12" length="1.89" shape="5157.33,11744.55 5156.59,11742.86"/>
    </edge>
    <edge id=":1331643689_0" function="internal">
        <lane id=":1331643689_0_0" index="0" allow="private emergency authority army vip passenger hov taxi bus coach delivery truck trailer motorcycle evehicle custom1 custom2" speed="21.17" length="2.10" shape="4833.35,12207.95 4833.89,12207.65 4834.26,12207.43 4834.61,12207.18 4835.11,12206.82"/>
    </edge>
    <edge id=":1331643689_1" function="internal">
        <lane id=":1331643689_1_0" index="0" disallow="pedestrian bicycle tram rail_urban rail rail_electric rail_fast ship" speed="20.12" length="2.66" shape="4834.98,12210.71 4836.98,12209.42"/>
        <lane id=":1331643689_1_1" index="1" disallow="pedestrian bicycle tram rail_urban rail rail_electric rail_fast ship" speed="20.12" length="2.66" shape="4836.61,12213.47 4838.84,12212.02"/>
        <lane id=":1331643689_1_2" index="2" disallow="pedestrian bicycle tram rail_urban rail rail_electric rail_fast ship" speed="20.12" length="2.66" shape="4838.24,12216.22 4840.70,12214.62"/>
    </edge>
    <edge id=":1331643697_0" function="internal">
        <lane id=":1331643697_0_0" index="0" disallow="pedestrian bicycle tram rail_urban rail rail_electric rail_fast ship" speed="20.12" length="8.21" shape="4638.54,12294.13 4636.25,12294.87 4634.81,12295.73 4633.36,12296.61 4631.07,12297.36"/>
        <lane id=":1331643697_0_1" index="1" disallow="pedestrian bicycle tram rail_urban rail rail_electric rail_fast ship" speed="20.12" length="8.21" shape="4638.54,12294.13 4636.15,12294.38 4634.47,12294.17 4632.79,12293.97 4630.40,12294.23"/>
        <lane id=":1331643697_0_2" index="2" disallow="pedestrian bicycle tram rail_urban rail rail_electric rail_fast ship" speed="20.12" length="8.21" shape="4637.88,12291.00 4635.49,12291.25 4633.80,12291.04 4632.12,12290.84 4629.72,12291.10"/>
        <lane id=":1331643697_0_3" index="3" disallow="pedestrian bicycle tram rail_urban rail rail_electric rail_fast ship" speed="20.12" length="8.21" shape="4637.23,12287.87 4634.82,12288.12 4633.14,12287.91 4631.45,12287.71 4629.05,12287.97"/>
    </edge>
    <edge id=":1341816989_0" function="internal">
        <lane id=":1341816989_0_0" index="0" disallow="tram rail_urban rail rail_electric rail_fast ship" speed="27.78" length="0.22" shape="8328.22,5278.92 8328.10,5279.00"/>
        <lane id=":1341816989_0_1" index="1" disallow="tram rail_urban rail rail_electric rail_fast ship" speed="27.78" length="0.22" shape="8325.02,5278.80 8324.90,5279.07"/>
    </edge>
    <edge id=":1341816989_2" function="internal">
        <lane id=":1341816989_2_0" index="0" disallow="tram rail_urban rail rail_electric rail_fast ship" speed="27.78" length="0.57" shape="8318.67,5279.20 8318.68,5279.01 8318.66,5278.87 8318.64,5278.74 8318.63,5278.54"/>
        <lane id=":1341816989_2_1" index="1" disallow="tram rail_urban rail rail_electric rail_fast ship" speed="27.78" length="0.57" shape="8321.92,5279.13 8321.92,5279.00 8321.88,5278.90 8321.84,5278.81 8321.83,5278.67"/>
    </edge>
    <edge id=":1341817009_0" function="internal">
        <lane id=":1341817009_0_0" index="0" disallow="tram rail_urban rail rail_electric rail_fast ship" speed="20.59" length="0.22" shape="8140.90,11709.13 8140.89,11709.30"/>
        <lane id=":1341817009_0_1" index="1" disallow="tram rail_urban rail rail_electric rail_fast ship" speed="20.59" length="0.22" shape="8137.71,11709.04 8137.69,11709.31"/>
    </edge>
    <edge id=":1341817009_2" function="internal">
        <lane id=":1341817009_2_0" index="0" disallow="tram rail_urban rail rail_electric rail_fast ship" speed="20.59" length="0.44" shape="8131.27,11709.34 8131.31,11708.85"/>
        <lane id=":1341817009_2_1" index="1" disallow="tram rail_urban rail rail_electric rail_fast ship" speed="20.59" length="0.44" shape="8134.49,11709.33 8134.51,11708.94"/>
    </edge>
    <edge id=":1350849872_0" function="internal">
        <lane id=":1350849872_0_0" index="0" disallow="tram rail_urban rail rail_electric rail_fast ship" speed="27.78" length="17.10" shape="10861.14,7656.16 10844.06,7655.77"/>
        <lane id=":1350849872_0_1" index="1" disallow="tram rail_urban rail rail_electric rail_fast ship" speed="27.78" length="17.10" shape="10861.23,7652.97 10844.12,7652.57"/>
    </edge>
    <edge id=":1350849872_2" function="internal">
        <lane id=":1350849872_2_0" index="0" allow="private emergency authority army vip passenger hov taxi bus coach delivery truck trailer motorcycle evehicle custom1 custom2" speed="10.41" length="6.02" shape="10861.23,7652.97 10856.74,7652.04 10855.56,7651.23"/>
    </edge>
    <edge id=":1350849872_3" function="internal">
        <lane id=":1350849872_3_0" index="0" disallow="tram rail_urban rail rail_electric rail_fast ship" speed="3.65" length="2.34" shape="10861.23,7652.97 10860.05,7652.13 10859.67,7651.32"/>
    </edge>
    <edge id=":1350849872_11" function="internal">
        <lane id=":1350849872_11_0" index="0" allow="private emergency authority army vip passenger hov taxi bus coach delivery truck trailer motorcycle evehicle custom1 custom2" speed="10.41" length="13.87" shape="10855.56,7651.23 10853.10,7649.55 10850.32,7645.48 10848.39,7639.84"/>
    </edge>
    <edge id=":1350849872_12" function="internal">
        <lane id=":1350849872_12_0" index="0" disallow="tram rail_urban rail rail_electric rail_fast ship" speed="3.65" length="2.34" shape="10859.67,7651.32 10860.10,7650.53 10861.32,7649.77"/>
    </edge>
    <edge id=":1350849872_4" function="internal">
        <lane id=":1350849872_4_0" index="0" allow="private emergency authority army vip passenger hov taxi bus coach delivery truck trailer motorcycle evehicle custom1 custom2" speed="6.15" length="9.16" shape="10856.82,7640.47 10856.59,7643.08 10857.28,7644.96 10858.89,7646.13 10861.41,7646.57"/>
    </edge>
    <edge id=":1350849872_5" function="internal">
        <lane id=":1350849872_5_0" index="0" allow="private emergency authority army vip passenger hov taxi bus coach delivery truck trailer motorcycle evehicle custom1 custom2" speed="10.00" length="19.16" shape="10856.82,7640.47 10854.96,7645.84 10852.23,7649.64 10848.62,7651.89 10844.12,7652.57"/>
    </edge>
    <edge id=":1350849872_6" function="internal">
        <lane id=":1350849872_6_0" index="0" allow="private emergency authority army vip passenger hov taxi bus coach delivery truck trailer motorcycle evehicle custom1 custom2" speed="7.13" length="20.45" shape="10856.82,7640.47 10854.75,7647.13 10852.66,7649.24 10850.54,7646.81 10848.39,7639.84"/>
    </edge>
    <edge id=":1350849872_7" function="internal">
        <lane id=":1350849872_7_0" index="0" allow="private emergency authority army vip passenger hov taxi bus coach delivery truck trailer motorcycle evehicle custom1 custom2" speed="6.07" length="9.20" shape="10844.25,7646.17 10846.63,7645.82 10848.11,7644.64 10848.70,7642.65 10848.39,7639.84"/>
    </edge>
    <edge id=":1350849872_8" function="internal">
        <lane id=":1350849872_8_0" index="0" disallow="tram rail_urban rail rail_electric rail_fast ship" speed="27.78" length="17.15" shape="10844.25,7646.17 10861.41,7646.57"/>
        <lane id=":1350849872_8_1" index="1" disallow="tram rail_urban rail rail_electric rail_fast ship" speed="27.78" length="17.15" shape="10844.19,7649.37 10861.32,7649.77"/>
    </edge>
    <edge id=":1350849872_10" function="internal">
        <lane id=":1350849872_10_0" index="0" disallow="tram rail_urban rail rail_electric rail_fast ship" speed="3.65" length="2.34" shape="10844.19,7649.37 10845.37,7650.19 10845.75,7651.00"/>
    </edge>
    <edge id=":1350849872_13" function="internal">
        <lane id=":1350849872_13_0" index="0" disallow="tram rail_urban rail rail_electric rail_fast ship" speed="3.65" length="2.34" shape="10845.75,7651.00 10845.34,7651.79 10844.12,7652.57"/>
    </edge>
    <edge id=":1350850318_0" function="internal">
        <lane id=":1350850318_0_0" index="0" disallow="pedestrian bicycle tram rail_urban rail rail_electric rail_fast ship" speed="27.78" length="15.52" shape="6903.94,10777.22 6903.44,10792.74"/>
        <lane id=":1350850318_0_1" index="1" disallow="pedestrian bicycle tram rail_urban rail rail_electric rail_fast ship" speed="27.78" length="15.52" shape="6900.74,10777.12 6900.24,10792.63"/>
    </edge>
    <edge id=":1350850318_2" function="internal">
        <lane id=":1350850318_2_0" index="0" disallow="pedestrian bicycle tram rail_urban rail rail_electric rail_fast ship" speed="7.79" length="13.58" shape="6900.74,10777.12 6899.81,10780.23 6897.59,10782.96 6894.60,10784.87 6891.40,10785.51"/>
    </edge>
    <edge id=":1350850318_3" function="internal">
        <lane id=":1350850318_3_0" index="0" disallow="pedestrian bicycle tram rail_urban rail rail_electric rail_fast ship" speed="8.34" length="15.32" shape="6891.55,10782.31 6895.48,10783.12 6898.24,10785.11 6899.82,10788.28 6900.24,10792.63"/>
    </edge>
    <edge id=":1350850318_4" function="internal">
        <lane id=":1350850318_4_0" index="0" disallow="tram rail_urban rail rail_electric rail_fast ship" speed="3.65" length="2.62" shape="6891.55,10782.31 6892.71,10783.17 6893.07,10783.99 6892.94,10784.23"/>
    </edge>
    <edge id=":1350850318_7" function="internal">
        <lane id=":1350850318_7_0" index="0" disallow="tram rail_urban rail rail_electric rail_fast ship" speed="3.65" length="2.06" shape="6892.94,10784.23 6892.64,10784.77 6891.40,10785.51"/>
    </edge>
    <edge id=":1350850318_5" function="internal">
        <lane id=":1350850318_5_0" index="0" disallow="pedestrian bicycle tram rail_urban rail rail_electric rail_fast ship" speed="5.73" length="8.55" shape="6893.91,10791.89 6894.71,10789.19 6894.56,10787.23 6893.46,10786.00 6891.40,10785.51"/>
    </edge>
    <edge id=":1350850318_6" function="internal">
        <lane id=":1350850318_6_0" index="0" disallow="pedestrian bicycle tram rail_urban rail rail_electric rail_fast ship" speed="4.55" length="7.46" shape="6893.91,10791.89 6895.25,10790.88 6897.41,10790.72 6899.40,10791.34 6900.24,10792.63"/>
    </edge>
    <edge id=":1350850690_0" function="internal">
        <lane id=":1350850690_0_0" index="0" disallow="pedestrian bicycle tram rail_urban rail rail_electric rail_fast ship" speed="27.78" length="12.68" shape="6893.25,11113.31 6892.84,11125.99"/>
        <lane id=":1350850690_0_1" index="1" disallow="pedestrian bicycle tram rail_urban rail rail_electric rail_fast ship" speed="27.78" length="12.68" shape="6890.06,11113.21 6889.64,11125.88"/>
    </edge>
    <edge id=":1350850690_2" function="internal">
        <lane id=":1350850690_2_0" index="0" disallow="pedestrian bicycle tram rail_urban rail rail_electric rail_fast ship" speed="5.44" length="10.52" shape="6884.77,11123.87 6887.02,11121.25 6888.58,11120.71 6889.45,11122.25 6889.64,11125.88"/>
    </edge>
    <edge id=":1350850713_0" function="internal">