<routes xmlns:xsi="http://www.w3.org/2001/XMLSchema-instance" xsi:noNamespaceSchemaLocation="http://sumo.dlr.de/xsd/routes_file.xsd">
	<vType id="HDV" tau="1.06" color="1,0,0">
        <param key="has.rerouting.device" value="false" />
    </vType>

    <trip id="3" depart="0.46" from="-143011790" to="gneE54" fromTaz="6" toTaz="16" departLane="free" departSpeed="max" type="HDV" />
    <trip id="4" depart="0.67" from="gneE57" to="120486427#1" fromTaz="22" toTaz="13" departLane="free" departSpeed="max" type="HDV" />
    <trip id="5" depart="0.79" from="237059099" to="gneE51" fromTaz="1" toTaz="10" departLane="free" departSpeed="max" type="HDV" />
    <trip id="6" depart="1.01" from="gneE57" to="-238143100#1" fromTaz="22" toTaz="7" departLane="free" departSpeed="max" type="HDV" />
    <trip id="7" depart="1.08" from="237173971#2.12" to="120486427#1" fromTaz="19" toTaz="13" departLane="free" departSpeed="max" type="HDV" />
    <trip id="9" depart="1.27" from="236932760#0.33" to="-238143100#1" fromTaz="11" toTaz="7" departLane="free" departSpeed="max" type="HDV" />
    <trip id="10" depart="1.33" from="237897772.377" to="gneE51" fromTaz="17" toTaz="10" departLane="free" departSpeed="max" type="HDV" />
    <trip id="11" depart="1.41" from="237897772.377" to="236826151#4" fromTaz="17" toTaz="12" departLane="free" departSpeed="max" type="HDV" />
    <trip id="13" depart="1.56" from="236664923#4.98" to="34521497" fromTaz="14" toTaz="23" departLane="free" departSpeed="max" type="HDV" />
    <trip id="14" depart="1.62" from="gneE48" to="163519766#4" fromTaz="9" toTaz="11" departLane="free" departSpeed="max" type="HDV" />
    <trip id="15" depart="1.65" from="120491117.17" to="gneE59" fromTaz="23" toTaz="24" departLane="free" departSpeed="max" type="HDV" />
    <trip id="17" depart="1.77" from="-120486427#2.20" to="163519766#4" fromTaz="13" toTaz="11" departLane="free" departSpeed="max" type="HDV" />
    <trip id="18" depart="1.80" from="gneE45" to="gneE49" fromTaz="5" toTaz="9" departLane="free" departSpeed="max" type="HDV" />
    <trip id="19" depart="1.82" from="gneE46" to="236826151#4" fromTaz="8" toTaz="12" departLane="free" departSpeed="max" type="HDV" />
    <trip id="20" depart="1.88" from="gneE50" to="123170973" fromTaz="10" toTaz="17" departLane="free" departSpeed="max" type="HDV" />
    <trip id="21" depart="1.88" from="gneE46" to="gneE54" fromTaz="8" toTaz="16" departLane="free" departSpeed="max" type="HDV" />
    <trip id="25" depart="2.32" from="gneE52" to="gneE56" fromTaz="15" toTaz="22" departLane="free" departSpeed="max" type="HDV" />
    <trip id="26" depart="2.55" from="gneE55" to="-238046405" fromTaz="16" toTaz="20" departLane="free" departSpeed="max" type="HDV" />
    <trip id="27" depart="2.66" from="gneE46" to="120486427#1" fromTaz="8" toTaz="13" departLane="free" departSpeed="max" type="HDV" />
    <trip id="28" depart="2.75" from="237897772.377" to="gneE54" fromTaz="17" toTaz="16" departLane="free" departSpeed="max" type="HDV" />
    <trip id="29" depart="2.77" from="-143011790" to="123170973" fromTaz="6" toTaz="17" departLane="free" departSpeed="max" type="HDV" />
    <trip id="30" depart="2.92" from="gneE57" to="9894536" fromTaz="22" toTaz="21" departLane="free" departSpeed="max" type="HDV" />
    <trip id="32" depart="3.20" from="gneE52" to="gneE54" fromTaz="15" toTaz="16" departLane="free" departSpeed="max" type="HDV" />
    <trip id="33" depart="3.23" from="237784200.27" to="gneE54" fromTaz="7" toTaz="16" departLane="free" departSpeed="max" type="HDV" />
    <trip id="35" depart="3.29" from="gneE55" to="236826151#4" fromTaz="16" toTaz="12" departLane="free" departSpeed="max" type="HDV" />
    <trip id="37" depart="3.46" from="gneE55" to="gneE51" fromTaz="16" toTaz="10" departLane="free" departSpeed="max" type="HDV" />
    <trip id="39" depart="3.60" from="238046405.20" to="gneE53" fromTaz="20" toTaz="15" departLane="free" departSpeed="max" type="HDV" />
    <trip id="40" depart="3.63" from="238011046#0-AddedOffRampEdge" to="gneE47" fromTaz="18" toTaz="8" departLane="free" departSpeed="max" type="HDV" />
    <trip id="42" depart="3.81" from="gneE55" to="123170973" fromTaz="16" toTaz="17" departLane="free" departSpeed="max" type="HDV" />
    <trip id="44" depart="3.87" from="120491117.17" to="gneE56" fromTaz="23" toTaz="22" departLane="free" departSpeed="max" type="HDV" />
    <trip id="48" depart="4.11" from="236829144#0" to="34521497" fromTaz="12" toTaz="23" departLane="free" departSpeed="max" type="HDV" />
    <trip id="49" depart="4.28" from="236664923#4.98" to="163519766#4" fromTaz="14" toTaz="11" departLane="free" departSpeed="max" type="HDV" />
    <trip id="50" depart="4.33" from="gneE50" to="123170973" fromTaz="10" toTaz="17" departLane="free" departSpeed="max" type="HDV" />
    <trip id="51" depart="4.34" from="-9894536.18" to="-238046405" fromTaz="21" toTaz="20" departLane="free" departSpeed="max" type="HDV" />
    <trip id="52" depart="4.39" from="238143100#1.24" to="gneE53" fromTaz="7" toTaz="15" departLane="free" departSpeed="max" type="HDV" />
    <trip id="53" depart="4.40" from="gneE55" to="123170973" fromTaz="16" toTaz="17" departLane="free" departSpeed="max" type="HDV" />
    <trip id="54" depart="4.43" from="gneE57" to="-238046405" fromTaz="22" toTaz="20" departLane="free" departSpeed="max" type="HDV" />
    <trip id="55" depart="4.46" from="gneE55" to="gneE42" fromTaz="16" toTaz="4" departLane="free" departSpeed="max" type="HDV" />
    <trip id="56" depart="4.52" from="gneE45" to="gneE47" fromTaz="5" toTaz="8" departLane="free" departSpeed="max" type="HDV" />
    <trip id="57" depart="4.54" from="gneE57" to="236669167#2-AddedOffRampEdge" fromTaz="22" toTaz="14" departLane="free" departSpeed="max" type="HDV" />
    <trip id="58" depart="4.77" from="109283507#2.40" to="236826151#4" fromTaz="19" toTaz="12" departLane="free" departSpeed="max" type="HDV" />
    <trip id="60" depart="4.80" from="gneE50" to="9894536" fromTaz="10" toTaz="21" departLane="free" departSpeed="max" type="HDV" />
    <trip id="61" depart="4.81" from="238046405.20" to="gneE49" fromTaz="20" toTaz="9" departLane="free" departSpeed="max" type="HDV" />
    <trip id="63" depart="4.89" from="236829144#0" to="gneE49" fromTaz="12" toTaz="9" departLane="free" departSpeed="max" type="HDV" />
    <trip id="64" depart="4.90" from="gneE48" to="237059996" fromTaz="9" toTaz="1" departLane="free" departSpeed="max" type="HDV" />
    <trip id="65" depart="5.02" from="gneE57" to="120486427#1" fromTaz="22" toTaz="13" departLane="free" departSpeed="max" type="HDV" />
    <trip id="66" depart="5.10" from="gneE46" to="163519766#4" fromTaz="8" toTaz="11" departLane="free" departSpeed="max" type="HDV" />
    <trip id="67" depart="5.15" from="-143011790" to="123170973" fromTaz="6" toTaz="17" departLane="free" departSpeed="max" type="HDV" />
    <trip id="68" depart="5.21" from="236664923#4.98" to="-610046037" fromTaz="14" toTaz="19" departLane="free" departSpeed="max" type="HDV" />
    <trip id="69" depart="5.45" from="gneE43" to="gneE49" fromTaz="4" toTaz="9" departLane="free" departSpeed="max" type="HDV" />
    <trip id="71" depart="5.83" from="236664923#4.98" to="gneE47" fromTaz="14" toTaz="8" departLane="free" departSpeed="max" type="HDV" />
    <trip id="73" depart="5.87" from="gneE58" to="120486427#1" fromTaz="24" toTaz="13" departLane="free" departSpeed="max" type="HDV" />
    <trip id="75" depart="6.19" from="238046405.20" to="34521497" fromTaz="20" toTaz="23" departLane="free" departSpeed="max" type="HDV" />
    <trip id="76" depart="6.46" from="109283507#2.40" to="gneE51" fromTaz="19" toTaz="10" departLane="free" departSpeed="max" type="HDV" />
    <trip id="78" depart="6.68" from="236932760#0.33" to="236826151#4" fromTaz="11" toTaz="12" departLane="free" departSpeed="max" type="HDV" />
    <trip id="79" depart="7.04" from="236829144#0" to="gneE49" fromTaz="12" toTaz="9" departLane="free" departSpeed="max" type="HDV" />
    <trip id="81" depart="7.11" from="gneE45" to="gneE42" fromTaz="5" toTaz="4" departLane="free" departSpeed="max" type="HDV" />
    <trip id="84" depart="7.36" from="gneE50" to="123170973" fromTaz="10" toTaz="17" departLane="free" departSpeed="max" type="HDV" />
    <trip id="85" depart="7.41" from="237897772.377" to="236669167#2-AddedOffRampEdge" fromTaz="17" toTaz="14" departLane="free" departSpeed="max" type="HDV" />
    <trip id="86" depart="7.63" from="236932760#0.33" to="gneE51" fromTaz="11" toTaz="10" departLane="free" departSpeed="max" type="HDV" />
    <trip id="89" depart="7.79" from="gneE48" to="gneE44" fromTaz="9" toTaz="5" departLane="free" departSpeed="max" type="HDV" />
    <trip id="94" depart="8.44" from="237784200.27" to="gneE53" fromTaz="7" toTaz="15" departLane="free" departSpeed="max" type="HDV" />
    <trip id="95" depart="8.44" from="gneE43" to="gneE51" fromTaz="4" toTaz="10" departLane="free" departSpeed="max" type="HDV" />
    <trip id="96" depart="8.59" from="gneE52" to="-238046405" fromTaz="15" toTaz="20" departLane="free" departSpeed="max" type="HDV" />
    <trip id="97" depart="8.70" from="gneE50" to="gneE56" fromTaz="10" toTaz="22" departLane="free" departSpeed="max" type="HDV" />
    <trip id="98" depart="8.75" from="-9894536.18" to="gneE54" fromTaz="21" toTaz="16" departLane="free" departSpeed="max" type="HDV" />
    <trip id="101" depart="9.10" from="-9894536.18" to="gneE51" fromTaz="21" toTaz="10" departLane="free" departSpeed="max" type="HDV" />
    <trip id="102" depart="9.11" from="236664923#4.98" to="gneE51" fromTaz="14" toTaz="10" departLane="free" departSpeed="max" type="HDV" />
    <trip id="105" depart="9.24" from="237173971#2.12" to="-238046405" fromTaz="19" toTaz="20" departLane="free" departSpeed="max" type="HDV" />
    <trip id="109" depart="9.45" from="237897772.377" to="-238143100#1" fromTaz="17" toTaz="7" departLane="free" departSpeed="max" type="HDV" />
    <trip id="113" depart="9.75" from="236664923#4.98" to="gneE51" fromTaz="14" toTaz="10" departLane="free" departSpeed="max" type="HDV" />
    <trip id="114" depart="9.81" from="gneE43" to="236826151#4" fromTaz="4" toTaz="12" departLane="free" departSpeed="max" type="HDV" />
    <trip id="115" depart="9.91" from="gneE52" to="gneE51" fromTaz="15" toTaz="10" departLane="free" departSpeed="max" type="HDV" />
    <trip id="116" depart="10.23" from="236829144#0" to="gneE44" fromTaz="12" toTaz="5" departLane="free" departSpeed="max" type="HDV" />
    <trip id="117" depart="10.34" from="236664923#4.98" to="120486427#1" fromTaz="14" toTaz="13" departLane="free" departSpeed="max" type="HDV" />
    <trip id="118" depart="10.58" from="237897772.377" to="gneE49" fromTaz="17" toTaz="9" departLane="free" departSpeed="max" type="HDV" />
    <trip id="119" depart="10.80" from="gneE43" to="gneE51" fromTaz="4" toTaz="10" departLane="free" departSpeed="max" type="HDV" />
    <trip id="121" depart="10.96" from="gneE46" to="123170973" fromTaz="8" toTaz="17" departLane="free" departSpeed="max" type="HDV" />
    <trip id="123" depart="11.03" from="236829144#0" to="143011790" fromTaz="12" toTaz="6" departLane="free" departSpeed="max" type="HDV" />
    <trip id="125" depart="11.09" from="237897772.377" to="gneE53" fromTaz="17" toTaz="15" departLane="free" departSpeed="max" type="HDV" />
    <trip id="126" depart="11.12" from="237059099" to="120486427#1" fromTaz="1" toTaz="13" departLane="free" departSpeed="max" type="HDV" />
    <trip id="129" depart="11.27" from="109283507#2.40" to="gneE54" fromTaz="19" toTaz="16" departLane="free" departSpeed="max" type="HDV" />
    <trip id="131" depart="11.35" from="237897772.377" to="gneE47" fromTaz="17" toTaz="8" departLane="free" departSpeed="max" type="HDV" />
    <trip id="133" depart="11.57" from="gneE50" to="gneE53" fromTaz="10" toTaz="15" departLane="free" departSpeed="max" type="HDV" />
    <trip id="137" depart="11.79" from="gneE57" to="-610046037" fromTaz="22" toTaz="19" departLane="free" departSpeed="max" type="HDV" />
    <trip id="139" depart="12.00" from="236829144#0" to="gneE42" fromTaz="12" toTaz="4" departLane="free" departSpeed="max" type="HDV" />
    <trip id="140" depart="12.03" from="237897772.377" to="gneE42" fromTaz="17" toTaz="4" departLane="free" departSpeed="max" type="HDV" />
    <trip id="141" depart="12.05" from="gneE48" to="gneE51" fromTaz="9" toTaz="10" departLane="free" departSpeed="max" type="HDV" />
    <trip id="144" depart="12.45" from="gneE58" to="gneE51" fromTaz="24" toTaz="10" departLane="free" departSpeed="max" type="HDV" />
    <trip id="147" depart="12.81" from="gneE58" to="gneE56" fromTaz="24" toTaz="22" departLane="free" departSpeed="max" type="HDV" />
    <trip id="148" depart="13.07" from="gneE57" to="163519766#4" fromTaz="22" toTaz="11" departLane="free" departSpeed="max" type="HDV" />
    <trip id="150" depart="13.54" from="236829144#0" to="34521497" fromTaz="12" toTaz="23" departLane="free" departSpeed="max" type="HDV" />
    <trip id="152" depart="13.84" from="-143011790" to="gneE44" fromTaz="6" toTaz="5" departLane="free" departSpeed="max" type="HDV" />
    <trip id="153" depart="13.89" from="237173971#2.12" to="gneE51" fromTaz="19" toTaz="10" departLane="free" departSpeed="max" type="HDV" />
    <trip id="156" depart="14.03" from="gneE55" to="123170973" fromTaz="16" toTaz="17" departLane="free" departSpeed="max" type="HDV" />
    <trip id="159" depart="14.09" from="238011046#0-AddedOffRampEdge" to="120486427#1" fromTaz="18" toTaz="13" departLane="free" departSpeed="max" type="HDV" />
    <trip id="160" depart="14.50" from="237897772.377" to="gneE49" fromTaz="17" toTaz="9" departLane="free" departSpeed="max" type="HDV" />
    <trip id="161" depart="14.52" from="236664923#4.98" to="gneE51" fromTaz="14" toTaz="10" departLane="free" departSpeed="max" type="HDV" />
    <trip id="162" depart="14.55" from="gneE43" to="gneE51" fromTaz="4" toTaz="10" departLane="free" departSpeed="max" type="HDV" />
    <trip id="163" depart="14.58" from="gneE55" to="163519766#4" fromTaz="16" toTaz="11" departLane="free" departSpeed="max" type="HDV" />
    <trip id="165" depart="14.90" from="120491117.17" to="gneE59" fromTaz="23" toTaz="24" departLane="free" departSpeed="max" type="HDV" />
    <trip id="166" depart="14.93" from="gneE55" to="gneE47" fromTaz="16" toTaz="8" departLane="free" departSpeed="max" type="HDV" />
    <trip id="167" depart="15.16" from="gneE46" to="178745915#4" fromTaz="8" toTaz="18" departLane="free" departSpeed="max" type="HDV" />
    <trip id="168" depart="15.34" from="236829144#0" to="143011790" fromTaz="12" toTaz="6" departLane="free" departSpeed="max" type="HDV" />
    <trip id="169" depart="15.36" from="236664923#4.98" to="120486427#1" fromTaz="14" toTaz="13" departLane="free" departSpeed="max" type="HDV" />
    <trip id="170" depart="15.47" from="238143100#1.24" to="163519766#4" fromTaz="7" toTaz="11" departLane="free" departSpeed="max" type="HDV" />
    <trip id="171" depart="15.49" from="237064630" to="163519766#4" fromTaz="2" toTaz="11" departLane="free" departSpeed="max" type="HDV" />
    <trip id="173" depart="15.63" from="120491117.17" to="gneE49" fromTaz="23" toTaz="9" departLane="free" departSpeed="max" type="HDV" />
    <trip id="175" depart="15.74" from="236932760#0.33" to="gneE56" fromTaz="11" toTaz="22" departLane="free" departSpeed="max" type="HDV" />
    <trip id="176" depart="15.75" from="236932760#0.33" to="236669167#2-AddedOffRampEdge" fromTaz="11" toTaz="14" departLane="free" departSpeed="max" type="HDV" />
    <trip id="177" depart="15.80" from="gneE57" to="gneE59" fromTaz="22" toTaz="24" departLane="free" departSpeed="max" type="HDV" />
    <trip id="178" depart="15.90" from="gneE50" to="gneE54" fromTaz="10" toTaz="16" departLane="free" departSpeed="max" type="HDV" />
    <trip id="179" depart="15.93" from="236829144#0" to="gneE42" fromTaz="12" toTaz="4" departLane="free" departSpeed="max" type="HDV" />
    <trip id="180" depart="15.94" from="gneE55" to="gneE49" fromTaz="16" toTaz="9" departLane="free" departSpeed="max" type="HDV" />
    <trip id="184" depart="16.40" from="gneE55" to="gneE49" fromTaz="16" toTaz="9" departLane="free" departSpeed="max" type="HDV" />
    <trip id="185" depart="16.49" from="gneE57" to="gneE53" fromTaz="22" toTaz="15" departLane="free" departSpeed="max" type="HDV" />
    <trip id="186" depart="16.54" from="gneE52" to="gneE54" fromTaz="15" toTaz="16" departLane="free" departSpeed="max" type="HDV" />
    <trip id="189" depart="16.87" from="237897772.377" to="gneE47" fromTaz="17" toTaz="8" departLane="free" departSpeed="max" type="HDV" />
    <trip id="190" depart="16.93" from="237173971#2.12" to="9894536" fromTaz="19" toTaz="21" departLane="free" departSpeed="max" type="HDV" />
    <trip id="192" depart="17.33" from="238046405.20" to="120486427#1" fromTaz="20" toTaz="13" departLane="free" departSpeed="max" type="HDV" />
    <trip id="193" depart="18.08" from="gneE55" to="gneE51" fromTaz="16" toTaz="10" departLane="free" departSpeed="max" type="HDV" />
    <trip id="197" depart="18.30" from="120491117.17" to="123170973" fromTaz="23" toTaz="17" departLane="free" departSpeed="max" type="HDV" />
    <trip id="198" depart="18.39" from="237059099" to="gneE51" fromTaz="1" toTaz="10" departLane="free" departSpeed="max" type="HDV" />
    <trip id="201" depart="18.68" from="236932760#0.33" to="-238046405" fromTaz="11" toTaz="20" departLane="free" departSpeed="max" type="HDV" />
    <trip id="202" depart="18.86" from="gneE50" to="-86865173#0" fromTaz="10" toTaz="19" departLane="free" departSpeed="max" type="HDV" />
    <trip id="204" depart="18.93" from="236664923#4.98" to="120486427#1" fromTaz="14" toTaz="13" departLane="free" departSpeed="max" type="HDV" />
    <trip id="205" depart="18.94" from="gneE50" to="gneE42" fromTaz="10" toTaz="4" departLane="free" departSpeed="max" type="HDV" />
    <trip id="207" depart="19.13" from="-120486427#2.20" to="gneE51" fromTaz="13" toTaz="10" departLane="free" departSpeed="max" type="HDV" />
    <trip id="208" depart="19.26" from="120491117.17" to="gneE51" fromTaz="23" toTaz="10" departLane="free" departSpeed="max" type="HDV" />
    <trip id="209" depart="19.29" from="238046405.20" to="-238143100#1" fromTaz="20" toTaz="7" departLane="free" departSpeed="max" type="HDV" />
    <trip id="210" depart="19.36" from="238046405.20" to="gneE47" fromTaz="20" toTaz="8" departLane="free" departSpeed="max" type="HDV" />
    <trip id="211" depart="19.37" from="237897772.377" to="gneE54" fromTaz="17" toTaz="16" departLane="free" departSpeed="max" type="HDV" />
    <trip id="212" depart="19.39" from="-120486427#2.20" to="236669167#2-AddedOffRampEdge" fromTaz="13" toTaz="14" departLane="free" departSpeed="max" type="HDV" />
    <trip id="213" depart="19.61" from="237059099" to="123170973" fromTaz="1" toTaz="17" departLane="free" departSpeed="max" type="HDV" />
    <trip id="214" depart="19.61" from="gneE52" to="gneE51" fromTaz="15" toTaz="10" departLane="free" departSpeed="max" type="HDV" />
    <trip id="217" depart="19.86" from="gneE57" to="gneE59" fromTaz="22" toTaz="24" departLane="free" departSpeed="max" type="HDV" />
    <trip id="218" depart="20.67" from="120491117.17" to="gneE56" fromTaz="23" toTaz="22" departLane="free" departSpeed="max" type="HDV" />
    <trip id="219" depart="20.70" from="238046405.20" to="gneE47" fromTaz="20" toTaz="8" departLane="free" departSpeed="max" type="HDV" />
    <trip id="223" depart="21.17" from="gneE48" to="236826151#4" fromTaz="9" toTaz="12" departLane="free" departSpeed="max" type="HDV" />
    <trip id="226" depart="21.37" from="238143100#1.24" to="gneE56" fromTaz="7" toTaz="22" departLane="free" departSpeed="max" type="HDV" />
    <trip id="229" depart="21.76" from="gneE50" to="236826151#4" fromTaz="10" toTaz="12" departLane="free" departSpeed="max" type="HDV" />
    <trip id="230" depart="21.91" from="237897772.377" to="-238046405" fromTaz="17" toTaz="20" departLane="free" departSpeed="max" type="HDV" />
    <trip id="232" depart="22.09" from="236664923#4.98" to="gneE51" fromTaz="14" toTaz="10" departLane="free" departSpeed="max" type="HDV" />
    <trip id="234" depart="22.42" from="gneE50" to="gneE44" fromTaz="10" toTaz="5" departLane="free" departSpeed="max" type="HDV" />
    <trip id="235" depart="22.53" from="gneE52" to="gneE51" fromTaz="15" toTaz="10" departLane="free" departSpeed="max" type="HDV" />
    <trip id="236" depart="22.66" from="237784200.27" to="-610046037" fromTaz="7" toTaz="19" departLane="free" departSpeed="max" type="HDV" />
    <trip id="237" depart="22.68" from="236829144#0" to="120486427#1" fromTaz="12" toTaz="13" departLane="free" departSpeed="max" type="HDV" />
    <trip id="238" depart="22.69" from="gneE50" to="123170973" fromTaz="10" toTaz="17" departLane="free" departSpeed="max" type="HDV" />
    <trip id="239" depart="22.77" from="gneE52" to="-86865173#0" fromTaz="15" toTaz="19" departLane="free" departSpeed="max" type="HDV" />
    <trip id="242" depart="23.34" from="236829144#0" to="123170973" fromTaz="12" toTaz="17" departLane="free" departSpeed="max" type="HDV" />
    <trip id="245" depart="23.87" from="gneE50" to="34521497" fromTaz="10" toTaz="23" departLane="free" departSpeed="max" type="HDV" />
    <trip id="246" depart="23.89" from="gneE50" to="163519766#4" fromTaz="10" toTaz="11" departLane="free" departSpeed="max" type="HDV" />
    <trip id="247" depart="24.03" from="gneE55" to="gneE51" fromTaz="16" toTaz="10" departLane="free" departSpeed="max" type="HDV" />
    <trip id="248" depart="24.09" from="236932760#0.33" to="gneE56" fromTaz="11" toTaz="22" departLane="free" departSpeed="max" type="HDV" />
    <trip id="251" depart="24.39" from="237897772.377" to="gneE54" fromTaz="17" toTaz="16" departLane="free" departSpeed="max" type="HDV" />
    <trip id="253" depart="24.61" from="236932760#0.33" to="gneE51" fromTaz="11" toTaz="10" departLane="free" departSpeed="max" type="HDV" />
    <trip id="254" depart="24.68" from="gneE48" to="gneE54" fromTaz="9" toTaz="16" departLane="free" departSpeed="max" type="HDV" />
    <trip id="258" depart="25.02" from="120491117.17" to="gneE54" fromTaz="23" toTaz="16" departLane="free" departSpeed="max" type="HDV" />
    <trip id="259" depart="25.12" from="gneE50" to="178745915#4" fromTaz="10" toTaz="18" departLane="free" departSpeed="max" type="HDV" />
    <trip id="261" depart="25.34" from="236932760#0.33" to="gneE56" fromTaz="11" toTaz="22" departLane="free" departSpeed="max" type="HDV" />
    <trip id="262" depart="25.54" from="gneE46" to="143011790" fromTaz="8" toTaz="6" departLane="free" departSpeed="max" type="HDV" />
    <trip id="263" depart="25.70" from="gneE48" to="236826151#4" fromTaz="9" toTaz="12" departLane="free" departSpeed="max" type="HDV" />
    <trip id="265" depart="25.74" from="gneE50" to="-238046405" fromTaz="10" toTaz="20" departLane="free" departSpeed="max" type="HDV" />
    <trip id="268" depart="26.02" from="237784200.27" to="gneE54" fromTaz="7" toTaz="16" departLane="free" departSpeed="max" type="HDV" />
    <trip id="269" depart="26.11" from="gneE46" to="gneE42" fromTaz="8" toTaz="4" departLane="free" departSpeed="max" type="HDV" />
    <trip id="270" depart="26.25" from="-143011790" to="gneE51" fromTaz="6" toTaz="10" departLane="free" departSpeed="max" type="HDV" />
    <trip id="271" depart="26.28" from="gneE48" to="-238143100#1" fromTaz="9" toTaz="7" departLane="free" departSpeed="max" type="HDV" />
    <trip id="273" depart="26.48" from="237173971#2.12" to="gneE56" fromTaz="19" toTaz="22" departLane="free" departSpeed="max" type="HDV" />
    <trip id="276" depart="26.70" from="gneE48" to="gneE42" fromTaz="9" toTaz="4" departLane="free" departSpeed="max" type="HDV" />
    <trip id="280" depart="27.22" from="gneE46" to="237059996" fromTaz="8" toTaz="1" departLane="free" departSpeed="max" type="HDV" />
    <trip id="281" depart="27.26" from="gneE50" to="-86865173#0" fromTaz="10" toTaz="19" departLane="free" departSpeed="max" type="HDV" />
    <trip id="282" depart="27.48" from="237173971#2.12" to="gneE56" fromTaz="19" toTaz="22" departLane="free" departSpeed="max" type="HDV" />
    <trip id="284" depart="27.62" from="236932760#0.33" to="gneE53" fromTaz="11" toTaz="15" departLane="free" departSpeed="max" type="HDV" />
    <trip id="286" depart="27.76" from="gneE55" to="-238046405" fromTaz="16" toTaz="20" departLane="free" departSpeed="max" type="HDV" />
    <trip id="287" depart="27.79" from="236829144#0" to="34521497" fromTaz="12" toTaz="23" departLane="free" departSpeed="max" type="HDV" />
    <trip id="288" depart="27.90" from="gneE58" to="gneE56" fromTaz="24" toTaz="22" departLane="free" departSpeed="max" type="HDV" />
    <trip id="289" depart="27.92" from="-120486427#2.20" to="34521497" fromTaz="13" toTaz="23" departLane="free" departSpeed="max" type="HDV" />
    <trip id="291" depart="28.04" from="236932760#0.33" to="gneE51" fromTaz="11" toTaz="10" departLane="free" departSpeed="max" type="HDV" />
    <trip id="294" depart="28.74" from="236932760#0.33" to="34521497" fromTaz="11" toTaz="23" departLane="free" departSpeed="max" type="HDV" />
    <trip id="295" depart="28.87" from="gneE55" to="123170973" fromTaz="16" toTaz="17" departLane="free" departSpeed="max" type="HDV" />
    <trip id="297" depart="29.01" from="237897772.377" to="gneE54" fromTaz="17" toTaz="16" departLane="free" departSpeed="max" type="HDV" />
    <trip id="300" depart="29.39" from="-9894536.18" to="120486427#1" fromTaz="21" toTaz="13" departLane="free" departSpeed="max" type="HDV" />
    <trip id="301" depart="29.43" from="gneE43" to="-238046405" fromTaz="4" toTaz="20" departLane="free" departSpeed="max" type="HDV" />
    <trip id="302" depart="29.51" from="gneE48" to="9894536" fromTaz="9" toTaz="21" departLane="free" departSpeed="max" type="HDV" />
    <trip id="308" depart="30.02" from="gneE55" to="gneE56" fromTaz="16" toTaz="22" departLane="free" departSpeed="max" type="HDV" />
    <trip id="309" depart="30.08" from="gneE57" to="163519766#4" fromTaz="22" toTaz="11" departLane="free" departSpeed="max" type="HDV" />
    <trip id="311" depart="30.37" from="237897772.377" to="gneE47" fromTaz="17" toTaz="8" departLane="free" departSpeed="max" type="HDV" />
    <trip id="312" depart="30.58" from="109283507#2.40" to="gneE51" fromTaz="19" toTaz="10" departLane="free" departSpeed="max" type="HDV" />
    <trip id="313" depart="30.66" from="gneE52" to="gneE56" fromTaz="15" toTaz="22" departLane="free" departSpeed="max" type="HDV" />
    <trip id="314" depart="30.76" from="-143011790" to="123170973" fromTaz="6" toTaz="17" departLane="free" departSpeed="max" type="HDV" />
    <trip id="316" depart="31.26" from="gneE57" to="-238046405" fromTaz="22" toTaz="20" departLane="free" departSpeed="max" type="HDV" />
    <trip id="317" depart="31.29" from="gneE46" to="gneE54" fromTaz="8" toTaz="16" departLane="free" departSpeed="max" type="HDV" />
    <trip id="318" depart="31.30" from="-9894536.18" to="120486427#1" fromTaz="21" toTaz="13" departLane="free" departSpeed="max" type="HDV" />
    <trip id="319" depart="31.39" from="236932760#0.33" to="123170973" fromTaz="11" toTaz="17" departLane="free" departSpeed="max" type="HDV" />
    <trip id="320" depart="31.55" from="237897772.377" to="gneE51" fromTaz="17" toTaz="10" departLane="free" departSpeed="max" type="HDV" />
    <trip id="322" depart="31.75" from="gneE46" to="-238143100#1" fromTaz="8" toTaz="7" departLane="free" departSpeed="max" type="HDV" />
    <trip id="323" depart="32.14" from="gneE50" to="163519766#4" fromTaz="10" toTaz="11" departLane="free" departSpeed="max" type="HDV" />
    <trip id="325" depart="32.36" from="gneE43" to="123170973" fromTaz="4" toTaz="17" departLane="free" departSpeed="max" type="HDV" />
    <trip id="326" depart="32.51" from="-143011790" to="123170973" fromTaz="6" toTaz="17" departLane="free" departSpeed="max" type="HDV" />
    <trip id="327" depart="33.54" from="237059099" to="gneE44" fromTaz="1" toTaz="5" departLane="free" departSpeed="max" type="HDV" />
    <trip id="328" depart="33.77" from="-120486427#2.20" to="gneE49" fromTaz="13" toTaz="9" departLane="free" departSpeed="max" type="HDV" />
    <trip id="331" depart="34.22" from="109283507#2.40" to="gneE54" fromTaz="19" toTaz="16" departLane="free" departSpeed="max" type="HDV" />
    <trip id="335" depart="34.96" from="238011046#0-AddedOffRampEdge" to="gneE54" fromTaz="18" toTaz="16" departLane="free" departSpeed="max" type="HDV" />
    <trip id="338" depart="35.06" from="237173971#2.12" to="gneE54" fromTaz="19" toTaz="16" departLane="free" departSpeed="max" type="HDV" />
    <trip id="340" depart="35.18" from="gneE52" to="120486427#1" fromTaz="15" toTaz="13" departLane="free" departSpeed="max" type="HDV" />
    <trip id="342" depart="35.30" from="236932760#0.33" to="gneE54" fromTaz="11" toTaz="16" departLane="free" departSpeed="max" type="HDV" />
    <trip id="345" depart="35.61" from="gneE57" to="gneE51" fromTaz="22" toTaz="10" departLane="free" departSpeed="max" type="HDV" />
    <trip id="346" depart="35.62" from="238046405.20" to="gneE51" fromTaz="20" toTaz="10" departLane="free" departSpeed="max" type="HDV" />
    <trip id="349" depart="35.81" from="237897772.377" to="143011790" fromTaz="17" toTaz="6" departLane="free" departSpeed="max" type="HDV" />
    <trip id="350" depart="35.81" from="gneE50" to="-238143100#1" fromTaz="10" toTaz="7" departLane="free" departSpeed="max" type="HDV" />
    <trip id="352" depart="36.01" from="gneE57" to="163519766#4" fromTaz="22" toTaz="11" departLane="free" departSpeed="max" type="HDV" />
    <trip id="354" depart="36.22" from="gneE50" to="123170973" fromTaz="10" toTaz="17" departLane="free" departSpeed="max" type="HDV" />