<routes xmlns:xsi="http://www.w3.org/2001/XMLSchema-instance" xsi:noNamespaceSchemaLocation="http://sumo.dlr.de/xsd/routes_file.xsd">
    <vType id="HDV">
        <param key="has.rerouting.device" value="false" />
        <param key="device.rerouting.period" value="90" />
        <param key="device.rerouting.probability" value="0.5" />
        <param key="device.rerouting.deterministic" value="true" />
    </vType>

    <trip id="9" depart="1.27" from="236932760#0.33" to="-238143100#1" fromTaz="11" toTaz="7" departLane="free" departSpeed="max" type="HDV" />
    <trip id="11" depart="1.41" from="237897772.377" to="236826151#4" fromTaz="17" toTaz="12" departLane="free" departSpeed="max" type="HDV" />
    <trip id="14" depart="1.62" from="gneE48" to="163519766#4" fromTaz="9" toTaz="11" departLane="free" departSpeed="max" type="HDV" />
    <trip id="16" depart="1.77" from="gneE55" to="236826151#4" fromTaz="16" toTaz="12" departLane="free" departSpeed="max" type="HDV" />
    <trip id="18" depart="1.80" from="gneE45" to="gneE49" fromTaz="5" toTaz="9" departLane="free" departSpeed="max" type="HDV" />
    <trip id="19" depart="1.82" from="gneE46" to="236826151#4" fromTaz="8" toTaz="12" departLane="free" departSpeed="max" type="HDV" />
    <trip id="21" depart="1.88" from="gneE46" to="gneE54" fromTaz="8" toTaz="16" departLane="free" departSpeed="max" type="HDV" />
    <trip id="22" depart="1.91" from="120491117.17" to="9894536" fromTaz="23" toTaz="21" departLane="free" departSpeed="max" type="HDV" />
    <trip id="29" depart="2.77" from="-143011790" to="123170973" fromTaz="6" toTaz="17" departLane="free" departSpeed="max" type="HDV" />
    <trip id="30" depart="2.92" from="gneE57" to="9894536" fromTaz="22" toTaz="21" departLane="free" departSpeed="max" type="HDV" />
    <trip id="41" depart="3.77" from="238046405.20" to="-86865173#0" fromTaz="20" toTaz="19" departLane="free" departSpeed="max" type="HDV" />
    <trip id="42" depart="3.81" from="gneE55" to="123170973" fromTaz="16" toTaz="17" departLane="free" departSpeed="max" type="HDV" />
    <trip id="44" depart="3.87" from="120491117.17" to="gneE56" fromTaz="23" toTaz="22" departLane="free" departSpeed="max" type="HDV" />
    <trip id="62" depart="4.88" from="237897772.377" to="gneE54" fromTaz="17" toTaz="16" departLane="free" departSpeed="max" type="HDV" />
    <trip id="66" depart="5.10" from="gneE46" to="163519766#4" fromTaz="8" toTaz="11" departLane="free" departSpeed="max" type="HDV" />
    <trip id="68" depart="5.21" from="236664923#4.98" to="-610046037" fromTaz="14" toTaz="19" departLane="free" departSpeed="max" type="HDV" />
    <trip id="72" depart="5.84" from="gneE45" to="-238046405" fromTaz="5" toTaz="20" departLane="free" departSpeed="max" type="HDV" />
    <trip id="78" depart="6.68" from="236932760#0.33" to="236826151#4" fromTaz="11" toTaz="12" departLane="free" departSpeed="max" type="HDV" />
    <trip id="98" depart="8.75" from="-9894536.18" to="gneE54" fromTaz="21" toTaz="16" departLane="free" departSpeed="max" type="HDV" />
    <trip id="102" depart="9.11" from="236664923#4.98" to="gneE51" fromTaz="14" toTaz="10" departLane="free" departSpeed="max" type="HDV" />
    <trip id="103" depart="9.16" from="gneE52" to="34521497" fromTaz="15" toTaz="23" departLane="free" departSpeed="max" type="HDV" />
    <trip id="105" depart="9.24" from="237173971#2.12" to="-238046405" fromTaz="19" toTaz="20" departLane="free" departSpeed="max" type="HDV" />
    <trip id="113" depart="9.75" from="236664923#4.98" to="gneE51" fromTaz="14" toTaz="10" departLane="free" departSpeed="max" type="HDV" />
    <trip id="114" depart="9.81" from="gneE43" to="236826151#4" fromTaz="4" toTaz="12" departLane="free" departSpeed="max" type="HDV" />
    <trip id="117" depart="10.34" from="236664923#4.98" to="120486427#1" fromTaz="14" toTaz="13" departLane="free" departSpeed="max" type="HDV" />
    <trip id="118" depart="10.58" from="237897772.377" to="gneE49" fromTaz="17" toTaz="9" departLane="free" departSpeed="max" type="HDV" />
    <trip id="123" depart="11.03" from="236829144#0" to="143011790" fromTaz="12" toTaz="6" departLane="free" departSpeed="max" type="HDV" />
    <trip id="129" depart="11.27" from="109283507#2.40" to="gneE54" fromTaz="19" toTaz="16" departLane="free" departSpeed="max" type="HDV" />
    <trip id="131" depart="11.35" from="237897772.377" to="gneE47" fromTaz="17" toTaz="8" departLane="free" departSpeed="max" type="HDV" />
    <trip id="135" depart="11.71" from="gneE50" to="34521497" fromTaz="10" toTaz="23" departLane="free" departSpeed="max" type="HDV" />
    <trip id="141" depart="12.05" from="gneE48" to="gneE51" fromTaz="9" toTaz="10" departLane="free" departSpeed="max" type="HDV" />
    <trip id="146" depart="12.78" from="gneE52" to="gneE56" fromTaz="15" toTaz="22" departLane="free" departSpeed="max" type="HDV" />
    <trip id="148" depart="13.07" from="gneE57" to="163519766#4" fromTaz="22" toTaz="11" departLane="free" departSpeed="max" type="HDV" />
    <trip id="149" depart="13.36" from="gneE46" to="123170973" fromTaz="8" toTaz="17" departLane="free" departSpeed="max" type="HDV" />
    <trip id="157" depart="14.05" from="gneE52" to="-238046405" fromTaz="15" toTaz="20" departLane="free" departSpeed="max" type="HDV" />
    <trip id="161" depart="14.52" from="236664923#4.98" to="gneE51" fromTaz="14" toTaz="10" departLane="free" departSpeed="max" type="HDV" />
    <trip id="163" depart="14.58" from="gneE55" to="163519766#4" fromTaz="16" toTaz="11" departLane="free" departSpeed="max" type="HDV" />
    <trip id="165" depart="14.90" from="120491117.17" to="gneE59" fromTaz="23" toTaz="24" departLane="free" departSpeed="max" type="HDV" />
    <trip id="166" depart="14.93" from="gneE55" to="gneE47" fromTaz="16" toTaz="8" departLane="free" departSpeed="max" type="HDV" />
    <trip id="170" depart="15.47" from="238143100#1.24" to="163519766#4" fromTaz="7" toTaz="11" departLane="free" departSpeed="max" type="HDV" />
    <trip id="175" depart="15.74" from="236932760#0.33" to="gneE56" fromTaz="11" toTaz="22" departLane="free" departSpeed="max" type="HDV" />
    <trip id="180" depart="15.94" from="gneE55" to="gneE49" fromTaz="16" toTaz="9" departLane="free" departSpeed="max" type="HDV" />
    <trip id="183" depart="16.33" from="gneE55" to="gneE42" fromTaz="16" toTaz="4" departLane="free" departSpeed="max" type="HDV" />
    <trip id="188" depart="16.72" from="237059099" to="gneE51" fromTaz="1" toTaz="10" departLane="free" departSpeed="max" type="HDV" />
    <trip id="192" depart="17.33" from="238046405.20" to="120486427#1" fromTaz="20" toTaz="13" departLane="free" departSpeed="max" type="HDV" />
    <trip id="197" depart="18.30" from="120491117.17" to="123170973" fromTaz="23" toTaz="17" departLane="free" departSpeed="max" type="HDV" />
    <trip id="203" depart="18.86" from="236829144#0" to="-238046405" fromTaz="12" toTaz="20" departLane="free" departSpeed="max" type="HDV" />
    <trip id="218" depart="20.67" from="120491117.17" to="gneE56" fromTaz="23" toTaz="22" departLane="free" departSpeed="max" type="HDV" />
    <trip id="235" depart="22.53" from="gneE52" to="gneE51" fromTaz="15" toTaz="10" departLane="free" departSpeed="max" type="HDV" />
    <trip id="237" depart="22.68" from="236829144#0" to="120486427#1" fromTaz="12" toTaz="13" departLane="free" departSpeed="max" type="HDV" />
    <trip id="238" depart="22.69" from="gneE50" to="123170973" fromTaz="10" toTaz="17" departLane="free" departSpeed="max" type="HDV" />
    <trip id="241" depart="22.82" from="gneE50" to="163519766#4" fromTaz="10" toTaz="11" departLane="free" departSpeed="max" type="HDV" />
    <trip id="245" depart="23.87" from="gneE50" to="34521497" fromTaz="10" toTaz="23" departLane="free" departSpeed="max" type="HDV" />
    <trip id="252" depart="24.44" from="gneE50" to="236826151#4" fromTaz="10" toTaz="12" departLane="free" departSpeed="max" type="HDV" />
    <trip id="253" depart="24.61" from="236932760#0.33" to="gneE51" fromTaz="11" toTaz="10" departLane="free" departSpeed="max" type="HDV" />
    <trip id="256" depart="24.79" from="-120486427#2.20" to="-238143100#1" fromTaz="13" toTaz="7" departLane="free" departSpeed="max" type="HDV" />
    <trip id="258" depart="25.02" from="120491117.17" to="gneE54" fromTaz="23" toTaz="16" departLane="free" departSpeed="max" type="HDV" />
    <trip id="280" depart="27.22" from="gneE46" to="237059996" fromTaz="8" toTaz="1" departLane="free" departSpeed="max" type="HDV" />
    <trip id="281" depart="27.26" from="gneE50" to="-86865173#0" fromTaz="10" toTaz="19" departLane="free" departSpeed="max" type="HDV" />
    <trip id="288" depart="27.90" from="gneE58" to="gneE56" fromTaz="24" toTaz="22" departLane="free" departSpeed="max" type="HDV" />
    <trip id="291" depart="28.04" from="236932760#0.33" to="gneE51" fromTaz="11" toTaz="10" departLane="free" departSpeed="max" type="HDV" />
    <trip id="312" depart="30.58" from="109283507#2.40" to="gneE51" fromTaz="19" toTaz="10" departLane="free" departSpeed="max" type="HDV" />
    <trip id="314" depart="30.76" from="-143011790" to="123170973" fromTaz="6" toTaz="17" departLane="free" departSpeed="max" type="HDV" />
    <trip id="316" depart="31.26" from="gneE57" to="-238046405" fromTaz="22" toTaz="20" departLane="free" departSpeed="max" type="HDV" />
    <trip id="317" depart="31.29" from="gneE46" to="gneE54" fromTaz="8" toTaz="16" departLane="free" departSpeed="max" type="HDV" />
    <trip id="320" depart="31.55" from="237897772.377" to="gneE51" fromTaz="17" toTaz="10" departLane="free" departSpeed="max" type="HDV" />
    <trip id="328" depart="33.77" from="-120486427#2.20" to="gneE49" fromTaz="13" toTaz="9" departLane="free" departSpeed="max" type="HDV" />
    <trip id="329" depart="33.87" from="237897772.377" to="gneE51" fromTaz="17" toTaz="10" departLane="free" departSpeed="max" type="HDV" />
    <trip id="334" depart="34.64" from="gneE57" to="gneE59" fromTaz="22" toTaz="24" departLane="free" departSpeed="max" type="HDV" />
    <trip id="340" depart="35.18" from="gneE52" to="120486427#1" fromTaz="15" toTaz="13" departLane="free" departSpeed="max" type="HDV" />
    <trip id="346" depart="35.62" from="238046405.20" to="gneE51" fromTaz="20" toTaz="10" departLane="free" departSpeed="max" type="HDV" />
    <trip id="352" depart="36.01" from="gneE57" to="163519766#4" fromTaz="22" toTaz="11" departLane="free" departSpeed="max" type="HDV" />
    <trip id="369" depart="37.59" from="gneE50" to="123170973" fromTaz="10" toTaz="17" departLane="free" departSpeed="max" type="HDV" />
    <trip id="370" depart="37.70" from="237059099" to="gneE56" fromTaz="1" toTaz="22" departLane="free" departSpeed="max" type="HDV" />
    <trip id="372" depart="38.00" from="236829144#0" to="gneE49" fromTaz="12" toTaz="9" departLane="free" departSpeed="max" type="HDV" />
    <trip id="383" depart="38.76" from="gneE50" to="34521497" fromTaz="10" toTaz="23" departLane="free" departSpeed="max" type="HDV" />
    <trip id="387" depart="39.87" from="236812883#0" to="-237064630" fromTaz="3" toTaz="2" departLane="free" departSpeed="max" type="HDV" />
    <trip id="389" depart="40.02" from="236829144#0" to="gneE47" fromTaz="12" toTaz="8" departLane="free" departSpeed="max" type="HDV" />
    <trip id="390" depart="40.05" from="gneE48" to="gneE51" fromTaz="9" toTaz="10" departLane="free" departSpeed="max" type="HDV" />
    <trip id="394" depart="40.35" from="-143011790" to="gneE51" fromTaz="6" toTaz="10" departLane="free" departSpeed="max" type="HDV" />
    <trip id="397" depart="40.97" from="gneE45" to="143011790" fromTaz="5" toTaz="6" departLane="free" departSpeed="max" type="HDV" />
    <trip id="398" depart="40.98" from="237897772.377" to="-238046405" fromTaz="17" toTaz="20" departLane="free" departSpeed="max" type="HDV" />
    <trip id="401" depart="41.68" from="238046405.20" to="-238143100#1" fromTaz="20" toTaz="7" departLane="free" departSpeed="max" type="HDV" />
    <trip id="407" depart="42.31" from="gneE50" to="-238046405" fromTaz="10" toTaz="20" departLane="free" departSpeed="max" type="HDV" />
    <trip id="408" depart="42.40" from="gneE50" to="-238046405" fromTaz="10" toTaz="20" departLane="free" departSpeed="max" type="HDV" />
    <trip id="416" depart="43.53" from="236829144#0" to="163519766#4" fromTaz="12" toTaz="11" departLane="free" departSpeed="max" type="HDV" />
    <trip id="417" depart="43.54" from="-120486427#2.20" to="gneE51" fromTaz="13" toTaz="10" departLane="free" departSpeed="max" type="HDV" />
    <trip id="423" depart="45.37" from="gneE46" to="-238046405" fromTaz="8" toTaz="20" departLane="free" departSpeed="max" type="HDV" />
    <trip id="424" depart="45.42" from="-9894536.18" to="gneE49" fromTaz="21" toTaz="9" departLane="free" departSpeed="max" type="HDV" />
    <trip id="427" depart="45.93" from="gneE57" to="gneE54" fromTaz="22" toTaz="16" departLane="free" departSpeed="max" type="HDV" />
    <trip id="428" depart="46.08" from="gneE52" to="gneE44" fromTaz="15" toTaz="5" departLane="free" departSpeed="max" type="HDV" />
    <trip id="438" depart="47.08" from="gneE45" to="gneE51" fromTaz="5" toTaz="10" departLane="free" departSpeed="max" type="HDV" />
    <trip id="439" depart="47.16" from="236812883#0" to="gneE44" fromTaz="3" toTaz="5" departLane="free" departSpeed="max" type="HDV" />
    <trip id="441" depart="47.47" from="gneE50" to="-238046405" fromTaz="10" toTaz="20" departLane="free" departSpeed="max" type="HDV" />
    <trip id="444" depart="47.86" from="120491117.17" to="-238046405" fromTaz="23" toTaz="20" departLane="free" departSpeed="max" type="HDV" />
    <trip id="455" depart="48.70" from="gneE55" to="gneE53" fromTaz="16" toTaz="15" departLane="free" departSpeed="max" type="HDV" />
    <trip id="468" depart="49.86" from="gneE50" to="123170973" fromTaz="10" toTaz="17" departLane="free" departSpeed="max" type="HDV" />
    <trip id="470" depart="50.02" from="236829144#0" to="gneE56" fromTaz="12" toTaz="22" departLane="free" departSpeed="max" type="HDV" />
    <trip id="478" depart="50.70" from="gneE50" to="gneE56" fromTaz="10" toTaz="22" departLane="free" departSpeed="max" type="HDV" />
    <trip id="479" depart="50.76" from="-120486427#2.20" to="gneE49" fromTaz="13" toTaz="9" departLane="free" departSpeed="max" type="HDV" />
    <trip id="490" depart="52.41" from="236664923#4.98" to="236826151#4" fromTaz="14" toTaz="12" departLane="free" departSpeed="max" type="HDV" />
    <trip id="493" depart="52.65" from="238046405.20" to="gneE51" fromTaz="20" toTaz="10" departLane="free" departSpeed="max" type="HDV" />
    <trip id="494" depart="52.87" from="gneE43" to="gneE44" fromTaz="4" toTaz="5" departLane="free" departSpeed="max" type="HDV" />
    <trip id="496" depart="53.13" from="120491117.17" to="gneE51" fromTaz="23" toTaz="10" departLane="free" departSpeed="max" type="HDV" />
    <trip id="498" depart="53.26" from="gneE50" to="-238046405" fromTaz="10" toTaz="20" departLane="free" departSpeed="max" type="HDV" />
    <trip id="501" depart="53.54" from="236829144#0" to="gneE47" fromTaz="12" toTaz="8" departLane="free" departSpeed="max" type="HDV" />
    <trip id="502" depart="53.56" from="gneE50" to="-610046037" fromTaz="10" toTaz="19" departLane="free" departSpeed="max" type="HDV" />
    <trip id="503" depart="53.57" from="-120486427#2.20" to="236669167#2-AddedOffRampEdge" fromTaz="13" toTaz="14" departLane="free" departSpeed="max" type="HDV" />
    <trip id="507" depart="53.94" from="gneE50" to="120486427#1" fromTaz="10" toTaz="13" departLane="free" departSpeed="max" type="HDV" />
    <trip id="522" depart="55.29" from="237064630" to="gneE51" fromTaz="2" toTaz="10" departLane="free" departSpeed="max" type="HDV" />
    <trip id="523" depart="55.39" from="gneE50" to="163519766#4" fromTaz="10" toTaz="11" departLane="free" departSpeed="max" type="HDV" />
    <trip id="537" depart="56.11" from="-9894536.18" to="gneE53" fromTaz="21" toTaz="15" departLane="free" departSpeed="max" type="HDV" />
    <trip id="538" depart="56.11" from="-120486427#2.20" to="gneE59" fromTaz="13" toTaz="24" departLane="free" departSpeed="max" type="HDV" />
    <trip id="539" depart="56.27" from="gneE50" to="236669167#2-AddedOffRampEdge" fromTaz="10" toTaz="14" departLane="free" departSpeed="max" type="HDV" />
    <trip id="542" depart="56.68" from="gneE46" to="gneE44" fromTaz="8" toTaz="5" departLane="free" departSpeed="max" type="HDV" />
    <trip id="549" depart="57.88" from="gneE43" to="gneE56" fromTaz="4" toTaz="22" departLane="free" departSpeed="max" type="HDV" />
    <trip id="555" depart="58.33" from="-9894536.18" to="34521497" fromTaz="21" toTaz="23" departLane="free" departSpeed="max" type="HDV" />
    <trip id="560" depart="58.89" from="236932760#0.33" to="-238046405" fromTaz="11" toTaz="20" departLane="free" departSpeed="max" type="HDV" />
    <trip id="561" depart="58.98" from="gneE57" to="-610046037" fromTaz="22" toTaz="19" departLane="free" departSpeed="max" type="HDV" />
    <trip id="564" depart="59.07" from="gneE50" to="163519766#4" fromTaz="10" toTaz="11" departLane="free" departSpeed="max" type="HDV" />
    <trip id="567" depart="59.55" from="237897772.377" to="gneE54" fromTaz="17" toTaz="16" departLane="free" departSpeed="max" type="HDV" />
    <trip id="583" depart="61.94" from="gneE48" to="123170973" fromTaz="9" toTaz="17" departLane="free" departSpeed="max" type="HDV" />
    <trip id="584" depart="61.95" from="-143011790" to="237059996" fromTaz="6" toTaz="1" departLane="free" departSpeed="max" type="HDV" />
    <trip id="595" depart="63.06" from="236829144#0" to="gneE42" fromTaz="12" toTaz="4" departLane="free" departSpeed="max" type="HDV" />
    <trip id="598" depart="63.20" from="gneE55" to="gneE51" fromTaz="16" toTaz="10" departLane="free" departSpeed="max" type="HDV" />
    <trip id="603" depart="63.84" from="238046405.20" to="gneE59" fromTaz="20" toTaz="24" departLane="free" departSpeed="max" type="HDV" />
    <trip id="611" depart="64.51" from="-120486427#2.20" to="-238143100#1" fromTaz="13" toTaz="7" departLane="free" departSpeed="max" type="HDV" />
    <trip id="614" depart="64.64" from="236829144#0" to="gneE51" fromTaz="12" toTaz="10" departLane="free" departSpeed="max" type="HDV" />
    <trip id="621" depart="65.70" from="238046405.20" to="gneE51" fromTaz="20" toTaz="10" departLane="free" departSpeed="max" type="HDV" />
    <trip id="624" depart="66.42" from="gneE48" to="gneE44" fromTaz="9" toTaz="5" departLane="free" departSpeed="max" type="HDV" />
    <trip id="637" depart="67.48" from="-9894536.18" to="gneE56" fromTaz="21" toTaz="22" departLane="free" departSpeed="max" type="HDV" />
    <trip id="643" depart="67.74" from="gneE55" to="143011790" fromTaz="16" toTaz="6" departLane="free" departSpeed="max" type="HDV" />
    <trip id="649" depart="69.03" from="236829144#0" to="gneE53" fromTaz="12" toTaz="15" departLane="free" departSpeed="max" type="HDV" />
    <trip id="656" depart="69.75" from="gneE50" to="gneE47" fromTaz="10" toTaz="8" departLane="free" departSpeed="max" type="HDV" />
    <trip id="660" depart="70.58" from="238143100#1.24" to="-237064630" fromTaz="7" toTaz="2" departLane="free" departSpeed="max" type="HDV" />
    <trip id="666" depart="71.39" from="237897772.377" to="gneE56" fromTaz="17" toTaz="22" departLane="free" departSpeed="max" type="HDV" />
    <trip id="669" depart="71.60" from="gneE52" to="gneE51" fromTaz="15" toTaz="10" departLane="free" departSpeed="max" type="HDV" />
    <trip id="670" depart="71.75" from="gneE50" to="-238046405" fromTaz="10" toTaz="20" departLane="free" departSpeed="max" type="HDV" />
    <trip id="671" depart="71.92" from="236664923#4.98" to="163519766#4" fromTaz="14" toTaz="11" departLane="free" departSpeed="max" type="HDV" />
    <trip id="675" depart="72.53" from="gneE52" to="gneE51" fromTaz="15" toTaz="10" departLane="free" departSpeed="max" type="HDV" />
    <trip id="686" depart="73.37" from="120491117.17" to="236826151#4" fromTaz="23" toTaz="12" departLane="free" departSpeed="max" type="HDV" />
    <trip id="698" depart="73.77" from="-143011790" to="123170973" fromTaz="6" toTaz="17" departLane="free" departSpeed="max" type="HDV" />
    <trip id="701" depart="74.47" from="gneE58" to="236826151#4" fromTaz="24" toTaz="12" departLane="free" departSpeed="max" type="HDV" />
    <trip id="704" depart="74.73" from="gneE58" to="gneE47" fromTaz="24" toTaz="8" departLane="free" departSpeed="max" type="HDV" />
    <trip id="724" depart="76.46" from="236932760#0.33" to="120486427#1" fromTaz="11" toTaz="13" departLane="free" departSpeed="max" type="HDV" />
    <trip id="727" depart="76.66" from="238143100#1.24" to="gneE51" fromTaz="7" toTaz="10" departLane="free" departSpeed="max" type="HDV" />
    <trip id="736" depart="77.36" from="238046405.20" to="gneE59" fromTaz="20" toTaz="24" departLane="free" departSpeed="max" type="HDV" />
    <trip id="740" depart="77.52" from="gneE45" to="gneE49" fromTaz="5" toTaz="9" departLane="free" departSpeed="max" type="HDV" />
    <trip id="751" depart="78.86" from="237897772.377" to="gneE54" fromTaz="17" toTaz="16" departLane="free" departSpeed="max" type="HDV" />
    <trip id="753" depart="78.97" from="gneE48" to="gneE51" fromTaz="9" toTaz="10" departLane="free" departSpeed="max" type="HDV" />
    <trip id="755" depart="79.19" from="gneE52" to="gneE51" fromTaz="15" toTaz="10" departLane="free" departSpeed="max" type="HDV" />
    <trip id="772" depart="80.69" from="120491117.17" to="gneE42" fromTaz="23" toTaz="4" departLane="free" departSpeed="max" type="HDV" />
    <trip id="777" depart="81.49" from="236932760#0.33" to="gneE51" fromTaz="11" toTaz="10" departLane="free" departSpeed="max" type="HDV" />
    <trip id="779" depart="81.53" from="236829144#0" to="gneE42" fromTaz="12" toTaz="4" departLane="free" departSpeed="max" type="HDV" />
    <trip id="786" depart="82.00" from="gneE46" to="gneE49" fromTaz="8" toTaz="9" departLane="free" departSpeed="max" type="HDV" />
    <trip id="792" depart="82.49" from="gneE57" to="34521497" fromTaz="22" toTaz="23" departLane="free" departSpeed="max" type="HDV" />
    <trip id="793" depart="82.57" from="238046405.20" to="gneE56" fromTaz="20" toTaz="22" departLane="free" departSpeed="max" type="HDV" />
    <trip id="796" depart="82.79" from="gneE58" to="120486427#1" fromTaz="24" toTaz="13" departLane="free" departSpeed="max" type="HDV" />
    <trip id="797" depart="82.86" from="gneE46" to="gneE49" fromTaz="8" toTaz="9" departLane="free" departSpeed="max" type="HDV" />
    <trip id="798" depart="82.86" from="gneE55" to="163519766#4" fromTaz="16" toTaz="11" departLane="free" departSpeed="max" type="HDV" />
    <trip id="800" depart="83.00" from="238046405.20" to="gneE51" fromTaz="20" toTaz="10" departLane="free" departSpeed="max" type="HDV" />
    <trip id="812" depart="83.76" from="gneE43" to="gneE56" fromTaz="4" toTaz="22" departLane="free" departSpeed="max" type="HDV" />
    <trip id="816" depart="84.36" from="gneE50" to="-238143100#1" fromTaz="10" toTaz="7" departLane="free" departSpeed="max" type="HDV" />
    <trip id="821" depart="84.78" from="gneE50" to="178745915#4" fromTaz="10" toTaz="18" departLane="free" departSpeed="max" type="HDV" />
    <trip id="831" depart="85.62" from="238011046#0-AddedOffRampEdge" to="123170973" fromTaz="18" toTaz="17" departLane="free" departSpeed="max" type="HDV" />
    <trip id="843" depart="87.11" from="gneE52" to="gneE59" fromTaz="15" toTaz="24" departLane="free" departSpeed="max" type="HDV" />
    <trip id="849" depart="87.96" from="gneE43" to="237059996" fromTaz="4" toTaz="1" departLane="free" departSpeed="max" type="HDV" />
    <trip id="852" depart="87.98" from="gneE46" to="236826151#4" fromTaz="8" toTaz="12" departLane="free" departSpeed="max" type="HDV" />
    <trip id="853" depart="88.22" from="238046405.20" to="gneE54" fromTaz="20" toTaz="16" departLane="free" departSpeed="max" type="HDV" />
    <trip id="858" depart="88.83" from="gneE57" to="34521497" fromTaz="22" toTaz="23" departLane="free" departSpeed="max" type="HDV" />
    <trip id="861" depart="89.21" from="109283507#2.40" to="gneE56" fromTaz="19" toTaz="22" departLane="free" departSpeed="max" type="HDV" />
    <trip id="865" depart="89.74" from="238143100#1.24" to="gneE54" fromTaz="7" toTaz="16" departLane="free" departSpeed="max" type="HDV" />
    <trip id="879" depart="91.49" from="238011046#0-AddedOffRampEdge" to="34521497" fromTaz="18" toTaz="23" departLane="free" departSpeed="max" type="HDV" />
    <trip id="881" depart="91.57" from="gneE52" to="gneE51" fromTaz="15" toTaz="10" departLane="free" departSpeed="max" type="HDV" />
    <trip id="885" depart="91.96" from="gneE52" to="gneE51" fromTaz="15" toTaz="10" departLane="free" departSpeed="max" type="HDV" />
    <trip id="888" depart="92.16" from="120491117.17" to="-238046405" fromTaz="23" toTaz="20" departLane="free" departSpeed="max" type="HDV" />
    <trip id="889" depart="92.22" from="gneE43" to="236669167#2-AddedOffRampEdge" fromTaz="4" toTaz="14" departLane="free" departSpeed="max" type="HDV" />
    <trip id="890" depart="92.22" from="-120486427#2.20" to="gneE54" fromTaz="13" toTaz="16" departLane="free" departSpeed="max" type="HDV" />
    <trip id="894" depart="92.83" from="gneE46" to="gneE53" fromTaz="8" toTaz="15" departLane="free" departSpeed="max" type="HDV" />
    <trip id="897" depart="93.17" from="gneE48" to="-610046037" fromTaz="9" toTaz="19" departLane="free" departSpeed="max" type="HDV" />
    <trip id="899" depart="93.30" from="gneE58" to="34521497" fromTaz="24" toTaz="23" departLane="free" departSpeed="max" type="HDV" />
    <trip id="901" depart="93.54" from="-9894536.18" to="120486427#1" fromTaz="21" toTaz="13" departLane="free" departSpeed="max" type="HDV" />
    <trip id="904" depart="93.91" from="gneE48" to="143011790" fromTaz="9" toTaz="6" departLane="free" departSpeed="max" type="HDV" />
    <trip id="906" depart="94.22" from="gneE50" to="gneE54" fromTaz="10" toTaz="16" departLane="free" departSpeed="max" type="HDV" />
    <trip id="918" depart="95.06" from="-9894536.18" to="gneE56" fromTaz="21" toTaz="22" departLane="free" departSpeed="max" type="HDV" />
    <trip id="921" depart="95.45" from="gneE50" to="gneE56" fromTaz="10" toTaz="22" departLane="free" departSpeed="max" type="HDV" />
    <trip id="926" depart="95.90" from="gneE50" to="237059996" fromTaz="10" toTaz="1" departLane="free" departSpeed="max" type="HDV" />
    <trip id="927" depart="95.95" from="236829144#0" to="123170973" fromTaz="12" toTaz="17" departLane="free" departSpeed="max" type="HDV" />
    <trip id="934" depart="96.52" from="237897772.377" to="-238046405" fromTaz="17" toTaz="20" departLane="free" departSpeed="max" type="HDV" />
    <trip id="935" depart="96.55" from="gneE43" to="120486427#1" fromTaz="4" toTaz="13" departLane="free" departSpeed="max" type="HDV" />
    <trip id="954" depart="98.57" from="gneE45" to="120486427#1" fromTaz="5" toTaz="13" departLane="free" departSpeed="max" type="HDV" />
    <trip id="957" depart="98.83" from="238046405.20" to="gneE54" fromTaz="20" toTaz="16" departLane="free" departSpeed="max" type="HDV" />
    <trip id="960" depart="99.04" from="236932760#0.33" to="140398795#3" fromTaz="11" toTaz="3" departLane="free" departSpeed="max" type="HDV" />
    <trip id="962" depart="99.23" from="gneE52" to="9894536" fromTaz="15" toTaz="21" departLane="free" departSpeed="max" type="HDV" />
    <trip id="964" depart="99.51" from="gneE52" to="gneE56" fromTaz="15" toTaz="22" departLane="free" departSpeed="max" type="HDV" />
    <trip id="971" depart="100.43" from="237897772.377" to="gneE53" fromTaz="17" toTaz="15" departLane="free" departSpeed="max" type="HDV" />
    <trip id="973" depart="100.57" from="-9894536.18" to="gneE49" fromTaz="21" toTaz="9" departLane="free" departSpeed="max" type="HDV" />
    <trip id="974" depart="100.63" from="237173971#2.12" to="gneE47" fromTaz="19" toTaz="8" departLane="free" departSpeed="max" type="HDV" />
    <trip id="978" depart="100.83" from="236664923#4.98" to="-238046405" fromTaz="14" toTaz="20" departLane="free" departSpeed="max" type="HDV" />
    <trip id="979" depart="100.87" from="gneE50" to="-610046037" fromTaz="10" toTaz="19" departLane="free" departSpeed="max" type="HDV" />
    <trip id="981" depart="101.01" from="-9894536.18" to="236669167#2-AddedOffRampEdge" fromTaz="21" toTaz="14" departLane="free" departSpeed="max" type="HDV" />
    <trip id="982" depart="101.02" from="109283507#2.40" to="236669167#2-AddedOffRampEdge" fromTaz="19" toTaz="14" departLane="free" departSpeed="max" type="HDV" />
    <trip id="986" depart="101.43" from="237059099" to="120486427#1" fromTaz="1" toTaz="13" departLane="free" departSpeed="max" type="HDV" />
    <trip id="1001" depart="103.32" from="gneE57" to="gneE59" fromTaz="22" toTaz="24" departLane="free" departSpeed="max" type="HDV" />
    <trip id="1003" depart="103.47" from="gneE50" to="236669167#2-AddedOffRampEdge" fromTaz="10" toTaz="14" departLane="free" departSpeed="max" type="HDV" />
    <trip id="1013" depart="104.19" from="gneE57" to="236669167#2-AddedOffRampEdge" fromTaz="22" toTaz="14" departLane="free" departSpeed="max" type="HDV" />
    <trip id="1014" depart="104.25" from="236664923#4.98" to="120486427#1" fromTaz="14" toTaz="13" departLane="free" departSpeed="max" type="HDV" />
    <trip id="1018" depart="105.02" from="gneE57" to="gneE53" fromTaz="22" toTaz="15" departLane="free" departSpeed="max" type="HDV" />
    <trip id="1023" depart="105.50" from="gneE48" to="163519766#4" fromTaz="9" toTaz="11" departLane="free" departSpeed="max" type="HDV" />
    <trip id="1031" depart="106.35" from="-120486427#2.20" to="236826151#4" fromTaz="13" toTaz="12" departLane="free" departSpeed="max" type="HDV" />
    <trip id="1034" depart="107.08" from="gneE43" to="-238143100#1" fromTaz="4" toTaz="7" departLane="free" departSpeed="max" type="HDV" />